tests/data/smart-ds/p1uhs10_1247/Master.dss
Clear

New Circuit.substation_p1uhs10_69 bus1=p1uhs10_69 pu=1.0 basekV=69.0 R1=1e-05 X1=1e-05 R0=1e-05 X0=1e-05

Redirect Transformers.dss
Redirect p1uhs10_1247--p1udt6120/Transformers.dss
Redirect p1uhs10_1247--p1udt14394/Transformers.dss
Redirect p1uhs10_1247--p1udt22980/Transformers.dss
Redirect p1uhs10_1247--p1udt12591/Transformers.dss
Redirect p1uhs10_1247--p1udt20878/Transformers.dss
Redirect Regulators.dss
Redirect LoadShapes.dss
Redirect p1uhs10_1247--p1udt6120/Loads.dss
Redirect p1uhs10_1247--p1udt14394/Loads.dss
Redirect p1uhs10_1247--p1udt22980/Loads.dss
Redirect p1uhs10_1247--p1udt12591/Loads.dss
Redirect p1uhs10_1247--p1udt20878/Loads.dss
Redirect LineCodes.dss
Redirect p1uhs10_1247--p1udt6120/LineCodes.dss
Redirect p1uhs10_1247--p1udt14394/LineCodes.dss
Redirect p1uhs10_1247--p1udt22980/LineCodes.dss
Redirect p1uhs10_1247--p1udt12591/LineCodes.dss
Redirect p1uhs10_1247--p1udt20878/LineCodes.dss
Redirect Lines.dss
Redirect p1uhs10_1247--p1udt6120/Lines.dss
Redirect p1uhs10_1247--p1udt14394/Lines.dss
Redirect p1uhs10_1247--p1udt22980/Lines.dss
Redirect p1uhs10_1247--p1udt12591/Lines.dss
Redirect p1uhs10_1247--p1udt20878/Lines.dss
Redirect p1uhs10_1247--p1udt12591/Capacitors.dss
Redirect p1uhs10_1247--p1udt14394/Capacitors.dss
Redirect p1uhs10_1247--p1udt22980/Capacitors.dss
Redirect p1uhs10_1247--p1udt20878/Capacitors.dss

Set Voltagebases=[0.2080002494301389, 0.48, 7.199560000000001, 12.47, 69.0]

Calcvoltagebases

Buscoords Buscoords.dss

Solve mode=yearly number=35136