tests/data/smart-ds/p1uhs10_1247/p1uhs10_1247--p1udt14394/Loads.dss
New Load.load_p1ulv39 conn=wye bus1=p1ulv39.1.2 kV=0.2080002494301389 Vminpu=0.8 Vmaxpu=1.2 model=1 kW=16.07 kvar=1.3090400208127908 Phases=2 res_477656_pu

New Load.load_p1ulv40 conn=wye bus1=p1ulv40.1.2 kV=0.2080002494301389 Vminpu=0.8 Vmaxpu=1.2 model=1 kW=15.200000000000001 kvar=1.231423893304486 Phases=2 res_477656_pu

New Load.load_p1ulv41 conn=wye bus1=p1ulv41.1.2 kV=0.2080002494301389 Vminpu=0.8 Vmaxpu=1.2 model=1 kW=14.41 kvar=1.1696300687715029 Phases=2 res_477656_pu

New Load.load_p1ulv42 conn=wye bus1=p1ulv42.1.2 kV=0.2080002494301389 Vminpu=0.8 Vmaxpu=1.2 model=1 kW=15.92 kvar=1.2901589928032249 Phases=2 res_477656_pu

New Load.load_p1ulv43 conn=wye bus1=p1ulv43.1.2.3 kV=0.48 Vminpu=0.8 Vmaxpu=1.2 model=1 kW=64.43 kvar=5.232882602136481 Phases=3 res_477656_pu

New Load.load_p1ulv44 conn=wye bus1=p1ulv44.1.2 kV=0.2080002494301389 Vminpu=0.8 Vmaxpu=1.2 model=1 kW=15.68 kvar=1.269905510217453 Phases=2 res_477656_pu

New Load.load_p1ulv45 conn=wye bus1=p1ulv45.1.2 kV=0.2080002494301389 Vminpu=0.8 Vmaxpu=1.2 model=1 kW=15.530000000000001 kvar=1.2610064660568046 Phases=2 res_477656_pu

New Load.load_p1ulv658 conn=wye bus1=p1ulv658.1.2 kV=0.2080002494301389 Vminpu=0.8 Vmaxpu=1.2 model=1 kW=15.3 kvar=1.239525286338795 Phases=2 res_477656_pu

New Load.load_p1ulv700 conn=wye bus1=p1ulv700.1.2 kV=0.2080002494301389 Vminpu=0.8 Vmaxpu=1.2 model=1 kW=14.3 kvar=1.1585113559957074 Phases=2 res_477656_pu

New Load.load_p1ulv701 conn=wye bus1=p1ulv701.1.2 kV=0.2080002494301389 Vminpu=0.8 Vmaxpu=1.2 model=1 kW=13.98 kvar=1.1409467586725162 Phases=2 res_477656_pu

New Load.load_p1ulv702 conn=wye bus1=p1ulv702.1.2 kV=0.2080002494301389 Vminpu=0.8 Vmaxpu=1.2 model=1 kW=13.9 kvar=1.129018336644702 Phases=2 res_477656_pu

New Load.load_p1ulv703 conn=wye bus1=p1ulv703.1.2 kV=0.2080002494301389 Vminpu=0.8 Vmaxpu=1.2 model=1 kW=15.19 kvar=1.231423893304486 Phases=2 res_477656_pu

New Load.load_p1ulv1309 conn=wye bus1=p1ulv1309.1.2 kV=0.2080002494301389 Vminpu=0.8 Vmaxpu=1.2 model=1 kW=14.23 kvar=1.1613570361770957 Phases=2 res_477656_pu

New Load.load_p1ulv1310 conn=wye bus1=p1ulv1310.1.2 kV=0.2080002494301389 Vminpu=0.8 Vmaxpu=1.2 model=1 kW=13.43 kvar=1.0904351605376348 Phases=2 res_477656_pu

New Load.load_p1ulv1311 conn=wye bus1=p1ulv1311.1.2 kV=0.2080002494301389 Vminpu=0.8 Vmaxpu=1.2 model=1 kW=16.6 kvar=1.3483237207160328 Phases=2 res_477656_pu

New Load.load_p1ulv1315 conn=wye bus1=p1ulv1315.1.2 kV=0.2080002494301389 Vminpu=0.8 Vmaxpu=1.2 model=1 kW=15.450000000000001 kvar=1.2484326454187498 Phases=2 res_477656_pu

New Load.load_p1ulv1316 conn=wye bus1=p1ulv1316.1.2 kV=0.2080002494301389 Vminpu=0.8 Vmaxpu=1.2 model=1 kW=13.47 kvar=1.088842888327837 Phases=2 res_477656_pu

New Load.load_p1ulv1577 conn=wye bus1=p1ulv1577.1.2 kV=0.2080002494301389 Vminpu=0.8 Vmaxpu=1.2 model=1 kW=2.04 kvar=0.27010511948099925 Phases=2 res_477656_pu

New Load.load_p1ulv1578 conn=wye bus1=p1ulv1578.1.2 kV=0.2080002494301389 Vminpu=0.8 Vmaxpu=1.2 model=1 kW=5.95 kvar=0.7797381477161418 Phases=2 res_477656_pu

New Load.load_p1ulv1971 conn=wye bus1=p1ulv1971.1.2 kV=0.2080002494301389 Vminpu=0.8 Vmaxpu=1.2 model=1 kW=18.75 kvar=1.5190273967189654 Phases=2 res_477656_pu

New Load.load_p1ulv1972 conn=wye bus1=p1ulv1972.1.2 kV=0.2080002494301389 Vminpu=0.8 Vmaxpu=1.2 model=1 kW=14.23 kvar=1.1613570361770957 Phases=2 res_477656_pu

New Load.load_p1ulv1973 conn=wye bus1=p1ulv1973.1.2 kV=0.2080002494301389 Vminpu=0.8 Vmaxpu=1.2 model=1 kW=15.3 kvar=1.239525286338795 Phases=2 res_477656_pu

New Load.load_p1ulv1974 conn=wye bus1=p1ulv1974.1.2 kV=0.2080002494301389 Vminpu=0.8 Vmaxpu=1.2 model=1 kW=14.56 kvar=1.1787648385814788 Phases=2 res_477656_pu

New Load.load_p1ulv1975 conn=wye bus1=p1ulv1975.1.2 kV=0.2080002494301389 Vminpu=0.8 Vmaxpu=1.2 model=1 kW=13.44 kvar=1.0896474898558242 Phases=2 res_477656_pu

New Load.load_p1ulv1976 conn=wye bus1=p1ulv1976.1.2 kV=0.2080002494301389 Vminpu=0.8 Vmaxpu=1.2 model=1 kW=13.88 kvar=1.1298884703894267 Phases=2 res_477656_pu

New Load.load_p1ulv1980 conn=wye bus1=p1ulv1980.1.2 kV=0.2080002494301389 Vminpu=0.8 Vmaxpu=1.2 model=1 kW=14.370000000000001 kvar=1.1706047318492825 Phases=2 res_477656_pu

New Load.load_p1ulv2590 conn=wye bus1=p1ulv2590.1.2 kV=0.2080002494301389 Vminpu=0.8 Vmaxpu=1.2 model=1 kW=16.08 kvar=1.3090400208127908 Phases=2 res_477656_pu

New Load.load_p1ulv2591 conn=wye bus1=p1ulv2591.1.2 kV=0.2080002494301389 Vminpu=0.8 Vmaxpu=1.2 model=1 kW=14.780000000000001 kvar=1.200088867866603 Phases=2 res_477656_pu

New Load.load_p1ulv2592 conn=wye bus1=p1ulv2592.1.2 kV=0.2080002494301389 Vminpu=0.8 Vmaxpu=1.2 model=1 kW=16.38 kvar=1.3300484412589724 Phases=2 res_477656_pu

New Load.load_p1ulv2593 conn=wye bus1=p1ulv2593.1.2 kV=0.2080002494301389 Vminpu=0.8 Vmaxpu=1.2 model=1 kW=15.530000000000001 kvar=1.2610064660568046 Phases=2 res_477656_pu

New Load.load_p1ulv2594 conn=wye bus1=p1ulv2594.1.2 kV=0.2080002494301389 Vminpu=0.8 Vmaxpu=1.2 model=1 kW=13.8 kvar=1.1208959902193418 Phases=2 res_477656_pu

New Load.load_p1ulv3216 conn=wye bus1=p1ulv3216.1.2 kV=0.2080002494301389 Vminpu=0.8 Vmaxpu=1.2 model=1 kW=15.56 kvar=1.2597787689245672 Phases=2 res_477656_pu

New Load.load_p1ulv3261 conn=wye bus1=p1ulv3261.1.2 kV=0.2080002494301389 Vminpu=0.8 Vmaxpu=1.2 model=1 kW=46.37 kvar=3.7667787664929064 Phases=2 res_477656_pu

New Load.load_p1ulv3263 conn=wye bus1=p1ulv3263.1.2 kV=0.2080002494301389 Vminpu=0.8 Vmaxpu=1.2 model=1 kW=13.77 kvar=1.1188654036130017 Phases=2 res_477656_pu

New Load.load_p1ulv3264 conn=wye bus1=p1ulv3264.1.2 kV=0.2080002494301389 Vminpu=0.8 Vmaxpu=1.2 model=1 kW=14.18 kvar=1.1513547893144422 Phases=2 res_477656_pu

New Load.load_p1ulv3265 conn=wye bus1=p1ulv3265.1.2 kV=0.2080002494301389 Vminpu=0.8 Vmaxpu=1.2 model=1 kW=13.73 kvar=1.1205344401401856 Phases=2 res_477656_pu

New Load.load_p1ulv3271 conn=wye bus1=p1ulv3271.1.2 kV=0.2080002494301389 Vminpu=0.8 Vmaxpu=1.2 model=1 kW=16.85 kvar=1.3686295867794334 Phases=2 res_477656_pu

New Load.load_p1ulv3274 conn=wye bus1=p1ulv3274.1.2 kV=0.2080002494301389 Vminpu=0.8 Vmaxpu=1.2 model=1 kW=14.290000000000001 kvar=1.1585113559957074 Phases=2 res_477656_pu

New Load.load_p1ulv3902 conn=wye bus1=p1ulv3902.1.2.3 kV=0.48 Vminpu=0.8 Vmaxpu=1.2 model=1 kW=85.69 kvar=6.9609118041318565 Phases=3 res_477656_pu

New Load.load_p1ulv3903 conn=wye bus1=p1ulv3903.1.2 kV=0.2080002494301389 Vminpu=0.8 Vmaxpu=1.2 model=1 kW=9.47 kvar=0.7696004461493017 Phases=2 res_477656_pu

New Load.load_p1ulv3905 conn=wye bus1=p1ulv3905.1.2 kV=0.2080002494301389 Vminpu=0.8 Vmaxpu=1.2 model=1 kW=14.38 kvar=1.1706047318492825 Phases=2 res_477656_pu

New Load.load_p1ulv4490 conn=wye bus1=p1ulv4490.1.2.3 kV=0.48 Vminpu=0.8 Vmaxpu=1.2 model=1 kW=76.13 kvar=6.183197133903621 Phases=3 res_477656_pu

New Load.load_p1ulv4492 conn=wye bus1=p1ulv4492.1.2 kV=0.2080002494301389 Vminpu=0.8 Vmaxpu=1.2 model=1 kW=15.01 kvar=1.2215000586741016 Phases=2 res_477656_pu

New Load.load_p1ulv4493 conn=wye bus1=p1ulv4493.1.2 kV=0.2080002494301389 Vminpu=0.8 Vmaxpu=1.2 model=1 kW=13.34 kvar=1.078742398644737 Phases=2 res_477656_pu

New Load.load_p1ulv4494 conn=wye bus1=p1ulv4494.1.2.3 kV=0.48 Vminpu=0.8 Vmaxpu=1.2 model=1 kW=74.73 kvar=6.0694842839485785 Phases=3 res_477656_pu

New Load.load_p1ulv5096 conn=wye bus1=p1ulv5096.1.2 kV=0.2080002494301389 Vminpu=0.8 Vmaxpu=1.2 model=1 kW=20.28 kvar=1.6510606887017225 Phases=2 res_477656_pu

New Load.load_p1ulv5097 conn=wye bus1=p1ulv5097.1.2 kV=0.2080002494301389 Vminpu=0.8 Vmaxpu=1.2 model=1 kW=15.55 kvar=1.2597787689245672 Phases=2 res_477656_pu

New Load.load_p1ulv5098 conn=wye bus1=p1ulv5098.1.2 kV=0.2080002494301389 Vminpu=0.8 Vmaxpu=1.2 model=1 kW=15.14 kvar=1.2305476669617041 Phases=2 res_477656_pu

New Load.load_p1ulv5099 conn=wye bus1=p1ulv5099.1.2 kV=0.2080002494301389 Vminpu=0.8 Vmaxpu=1.2 model=1 kW=15.11 kvar=1.2296433109660727 Phases=2 res_477656_pu

New Load.load_p1ulv5104 conn=wye bus1=p1ulv5104.1.2 kV=0.2080002494301389 Vminpu=0.8 Vmaxpu=1.2 model=1 kW=13.620000000000001 kvar=1.109528303846426 Phases=2 res_477656_pu

New Load.load_p1ulv5105 conn=wye bus1=p1ulv5105.1.2 kV=0.2080002494301389 Vminpu=0.8 Vmaxpu=1.2 model=1 kW=15.56 kvar=1.2597787689245672 Phases=2 res_477656_pu

New Load.load_p1ulv5758 conn=wye bus1=p1ulv5758.1.2 kV=0.2080002494301389 Vminpu=0.8 Vmaxpu=1.2 model=1 kW=14.59 kvar=1.1889270495062174 Phases=2 res_477656_pu

New Load.load_p1ulv5759 conn=wye bus1=p1ulv5759.1.2 kV=0.2080002494301389 Vminpu=0.8 Vmaxpu=1.2 model=1 kW=16.64 kvar=1.348896117650222 Phases=2 res_477656_pu

New Load.load_p1ulv5765 conn=wye bus1=p1ulv5765.1.2 kV=0.2080002494301389 Vminpu=0.8 Vmaxpu=1.2 model=1 kW=13.09 kvar=1.0612926142357433 Phases=2 res_477656_pu

New Load.load_p1ulv6402 conn=wye bus1=p1ulv6402.1.2 kV=0.2080002494301389 Vminpu=0.8 Vmaxpu=1.2 model=1 kW=15.25 kvar=1.2386700133870643 Phases=2 res_477656_pu

New Load.load_p1ulv6403 conn=wye bus1=p1ulv6403.1.2 kV=0.2080002494301389 Vminpu=0.8 Vmaxpu=1.2 model=1 kW=14.3 kvar=1.1585113559957074 Phases=2 res_477656_pu

New Load.load_p1ulv6404 conn=wye bus1=p1ulv6404.1.2 kV=0.2080002494301389 Vminpu=0.8 Vmaxpu=1.2 model=1 kW=14.91 kvar=1.2102418008983036 Phases=2 res_477656_pu

New Load.load_p1ulv6405 conn=wye bus1=p1ulv6405.1.2 kV=0.2080002494301389 Vminpu=0.8 Vmaxpu=1.2 model=1 kW=15.68 kvar=1.269905510217453 Phases=2 res_477656_pu

New Load.load_p1ulv6412 conn=wye bus1=p1ulv6412.1.2 kV=0.2080002494301389 Vminpu=0.8 Vmaxpu=1.2 model=1 kW=15.8 kvar=1.2800322515103388 Phases=2 res_477656_pu

New Load.load_p1ulv7023 conn=wye bus1=p1ulv7023.1.2 kV=0.2080002494301389 Vminpu=0.8 Vmaxpu=1.2 model=1 kW=14.530000000000001 kvar=1.1797830018032032 Phases=2 res_477656_pu

New Load.load_p1ulv7024 conn=wye bus1=p1ulv7024.1.2 kV=0.2080002494301389 Vminpu=0.8 Vmaxpu=1.2 model=1 kW=14.530000000000001 kvar=1.1797830018032032 Phases=2 res_477656_pu

New Load.load_p1ulv7025 conn=wye bus1=p1ulv7025.1.2 kV=0.2080002494301389 Vminpu=0.8 Vmaxpu=1.2 model=1 kW=14.42 kvar=1.1686380972885935 Phases=2 res_477656_pu

New Load.load_p1ulv7026 conn=wye bus1=p1ulv7026.1.2 kV=0.2080002494301389 Vminpu=0.8 Vmaxpu=1.2 model=1 kW=14.96 kvar=1.2205468409403772 Phases=2 res_477656_pu

New Load.load_p1ulv7027 conn=wye bus1=p1ulv7027.1.2 kV=0.2080002494301389 Vminpu=0.8 Vmaxpu=1.2 model=1 kW=14.73 kvar=1.199106114871181 Phases=2 res_477656_pu

New Load.load_p1ulv7028 conn=wye bus1=p1ulv7028.1.2 kV=0.2080002494301389 Vminpu=0.8 Vmaxpu=1.2 model=1 kW=16.08 kvar=1.3090400208127908 Phases=2 res_477656_pu

New Load.load_p1ulv7030 conn=wye bus1=p1ulv7030.1.2 kV=0.2080002494301389 Vminpu=0.8 Vmaxpu=1.2 model=1 kW=14.63 kvar=1.19096286257921 Phases=2 res_477656_pu

New Load.load_p1ulv7035 conn=wye bus1=p1ulv7035.1.2 kV=0.2080002494301389 Vminpu=0.8 Vmaxpu=1.2 model=1 kW=13.65 kvar=1.1087104399946952 Phases=2 res_477656_pu

New Load.load_p1ulv7659 conn=wye bus1=p1ulv7659.1.2.3 kV=0.48 Vminpu=0.8 Vmaxpu=1.2 model=1 kW=81.27 kvar=6.6014979748096705 Phases=3 res_477656_pu

New Load.load_p1ulv7660 conn=wye bus1=p1ulv7660.1.2.3 kV=0.48 Vminpu=0.8 Vmaxpu=1.2 model=1 kW=78.42 kvar=6.370011101686904 Phases=3 res_477656_pu

New Load.load_p1ulv7662 conn=wye bus1=p1ulv7662.1.2 kV=0.2080002494301389 Vminpu=0.8 Vmaxpu=1.2 model=1 kW=14.72 kvar=1.199106114871181 Phases=2 res_477656_pu

New Load.load_p1ulv7663 conn=wye bus1=p1ulv7663.1.2 kV=0.2080002494301389 Vminpu=0.8 Vmaxpu=1.2 model=1 kW=14.49 kvar=1.1807837972142463 Phases=2 res_477656_pu

New Load.load_p1ulv7664 conn=wye bus1=p1ulv7664.1.2 kV=0.2080002494301389 Vminpu=0.8 Vmaxpu=1.2 model=1 kW=13.86 kvar=1.1307416199202263 Phases=2 res_477656_pu

New Load.load_p1ulv7665 conn=wye bus1=p1ulv7665.1.2 kV=0.2080002494301389 Vminpu=0.8 Vmaxpu=1.2 model=1 kW=17.330000000000002 kvar=1.4108327102755023 Phases=2 res_477656_pu

New Load.load_p1ulv7666 conn=wye bus1=p1ulv7666.1.2 kV=0.2080002494301389 Vminpu=0.8 Vmaxpu=1.2 model=1 kW=16.51 kvar=1.3402013742906727 Phases=2 res_477656_pu

New Load.load_p1ulv7667 conn=wye bus1=p1ulv7667.1.2 kV=0.2080002494301389 Vminpu=0.8 Vmaxpu=1.2 model=1 kW=12.86 kvar=1.040360537848958 Phases=2 res_477656_pu

New Load.load_p1ulv7668 conn=wye bus1=p1ulv7668.1.2 kV=0.2080002494301389 Vminpu=0.8 Vmaxpu=1.2 model=1 kW=15.16 kvar=1.2305476669617041 Phases=2 res_477656_pu

New Load.load_p1ulv7669 conn=wye bus1=p1ulv7669.1.2.3 kV=0.48 Vminpu=0.8 Vmaxpu=1.2 model=1 kW=91.96000000000001 kvar=7.468578761582933 Phases=3 res_477656_pu

New Load.load_p1ulv7677 conn=wye bus1=p1ulv7677.1.2 kV=0.2080002494301389 Vminpu=0.8 Vmaxpu=1.2 model=1 kW=13.94 kvar=1.1301564803756265 Phases=2 res_477656_pu

New Load.load_p1ulv7898 conn=wye bus1=p1ulv7898.1.2 kV=0.2080002494301389 Vminpu=0.8 Vmaxpu=1.2 model=1 kW=17.11 kvar=2.2506485919046932 Phases=2 res_477656_pu

New Load.load_p1ulv8266 conn=wye bus1=p1ulv8266.1.2 kV=0.2080002494301389 Vminpu=0.8 Vmaxpu=1.2 model=1 kW=14.75 kvar=1.2011419279441737 Phases=2 res_477656_pu

New Load.load_p1ulv8267 conn=wye bus1=p1ulv8267.1.2 kV=0.2080002494301389 Vminpu=0.8 Vmaxpu=1.2 model=1 kW=15.41 kvar=1.2508535330251045 Phases=2 res_477656_pu

New Load.load_p1ulv8268 conn=wye bus1=p1ulv8268.1.2 kV=0.2080002494301389 Vminpu=0.8 Vmaxpu=1.2 model=1 kW=13.34 kvar=1.078742398644737 Phases=2 res_477656_pu

New Load.load_p1ulv8274 conn=wye bus1=p1ulv8274.1.2 kV=0.2080002494301389 Vminpu=0.8 Vmaxpu=1.2 model=1 kW=15.200000000000001 kvar=1.231423893304486 Phases=2 res_477656_pu

New Load.load_p1ulv8280 conn=wye bus1=p1ulv8280.1.2 kV=0.2080002494301389 Vminpu=0.8 Vmaxpu=1.2 model=1 kW=14.07 kvar=1.1402832216685126 Phases=2 res_477656_pu

New Load.load_p1ulv8281 conn=wye bus1=p1ulv8281.1.2 kV=0.2080002494301389 Vminpu=0.8 Vmaxpu=1.2 model=1 kW=13.01 kvar=1.061344635376904 Phases=2 res_477656_pu

New Load.load_p1ulv8503 conn=wye bus1=p1ulv8503.1.2 kV=0.2080002494301389 Vminpu=0.8 Vmaxpu=1.2 model=1 kW=12.36 kvar=0.999958579116559 Phases=2 res_477656_pu

New Load.load_p1ulv8903 conn=wye bus1=p1ulv8903.1.2 kV=0.2080002494301389 Vminpu=0.8 Vmaxpu=1.2 model=1 kW=17.45 kvar=1.4210117756404663 Phases=2 res_477656_pu

New Load.load_p1ulv8905 conn=wye bus1=p1ulv8905.1.2 kV=0.2080002494301389 Vminpu=0.8 Vmaxpu=1.2 model=1 kW=15.76 kvar=1.2792817455138652 Phases=2 res_477656_pu

New Load.load_p1ulv8906 conn=wye bus1=p1ulv8906.1.2 kV=0.2080002494301389 Vminpu=0.8 Vmaxpu=1.2 model=1 kW=14.16 kvar=1.149324202708102 Phases=2 res_477656_pu

New Load.load_p1ulv8907 conn=wye bus1=p1ulv8907.1.2 kV=0.2080002494301389 Vminpu=0.8 Vmaxpu=1.2 model=1 kW=14.32 kvar=1.1605367042542845 Phases=2 res_477656_pu

New Load.load_p1ulv8908 conn=wye bus1=p1ulv8908.1.2 kV=0.2080002494301389 Vminpu=0.8 Vmaxpu=1.2 model=1 kW=14.51 kvar=1.1807837972142463 Phases=2 res_477656_pu

New Load.load_p1ulv8915 conn=wye bus1=p1ulv8915.1.2 kV=0.2080002494301389 Vminpu=0.8 Vmaxpu=1.2 model=1 kW=13.64 kvar=1.1087104399946952 Phases=2 res_477656_pu

New Load.load_p1ulv8916 conn=wye bus1=p1ulv8916.1.2 kV=0.2080002494301389 Vminpu=0.8 Vmaxpu=1.2 model=1 kW=18.87 kvar=1.5291541380118512 Phases=2 res_477656_pu

New Load.load_p1ulv9126 conn=wye bus1=p1ulv9126.1.2.3 kV=0.48 Vminpu=0.8 Vmaxpu=1.2 model=1 kW=68.16 kvar=5.537470593087488 Phases=3 res_477656_pu

New Load.load_p1ulv9526 conn=wye bus1=p1ulv9526.1.2.3 kV=0.48 Vminpu=0.8 Vmaxpu=1.2 model=1 kW=76.94 kvar=6.250206491912842 Phases=3 res_477656_pu

New Load.load_p1ulv9528 conn=wye bus1=p1ulv9528.1.2 kV=0.2080002494301389 Vminpu=0.8 Vmaxpu=1.2 model=1 kW=15.77 kvar=1.2813123321202051 Phases=2 res_477656_pu

New Load.load_p1ulv9529 conn=wye bus1=p1ulv9529.1.2 kV=0.2080002494301389 Vminpu=0.8 Vmaxpu=1.2 model=1 kW=14.58 kvar=1.180790186840056 Phases=2 res_477656_pu

New Load.load_p1ulv9530 conn=wye bus1=p1ulv9530.1.2 kV=0.2080002494301389 Vminpu=0.8 Vmaxpu=1.2 model=1 kW=13.200000000000001 kvar=1.069394007270052 Phases=2 res_477656_pu

New Load.load_p1ulv9534 conn=wye bus1=p1ulv9534.1.2 kV=0.2080002494301389 Vminpu=0.8 Vmaxpu=1.2 model=1 kW=14.09 kvar=1.1393473568412724 Phases=2 res_477656_pu

New Load.load_p1ulv9535 conn=wye bus1=p1ulv9535.1.2 kV=0.2080002494301389 Vminpu=0.8 Vmaxpu=1.2 model=1 kW=12.73 kvar=1.0309123903570856 Phases=2 res_477656_pu

New Load.load_p1ulv10134 conn=wye bus1=p1ulv10134.1.2 kV=0.2080002494301389 Vminpu=0.8 Vmaxpu=1.2 model=1 kW=15.120000000000001 kvar=1.2285170803553642 Phases=2 res_477656_pu

New Load.load_p1ulv10135 conn=wye bus1=p1ulv10135.1.2 kV=0.2080002494301389 Vminpu=0.8 Vmaxpu=1.2 model=1 kW=13.14 kvar=1.0688120423865706 Phases=2 res_477656_pu

New Load.load_p1ulv10136 conn=wye bus1=p1ulv10136.1.2 kV=0.2080002494301389 Vminpu=0.8 Vmaxpu=1.2 model=1 kW=12.49 kvar=1.0106589077713133 Phases=2 res_477656_pu

New Load.load_p1ulv10137 conn=wye bus1=p1ulv10137.1.2 kV=0.2080002494301389 Vminpu=0.8 Vmaxpu=1.2 model=1 kW=13.790000000000001 kvar=1.1208959902193418 Phases=2 res_477656_pu

New Load.load_p1ulv10138 conn=wye bus1=p1ulv10138.1.2 kV=0.2080002494301389 Vminpu=0.8 Vmaxpu=1.2 model=1 kW=14.34 kvar=1.1605367042542845 Phases=2 res_477656_pu

New Load.load_p1ulv10146 conn=wye bus1=p1ulv10146.1.2 kV=0.2080002494301389 Vminpu=0.8 Vmaxpu=1.2 model=1 kW=13.15 kvar=1.070847855459563 Phases=2 res_477656_pu

New Load.load_p1ulv10363 conn=wye bus1=p1ulv10363.1.2 kV=0.2080002494301389 Vminpu=0.8 Vmaxpu=1.2 model=1 kW=21.34 kvar=2.810021174233502 Phases=2 res_477656_pu

New Load.load_p1ulv10764 conn=wye bus1=p1ulv10764.1.2 kV=0.2080002494301389 Vminpu=0.8 Vmaxpu=1.2 model=1 kW=14.1 kvar=1.151151897424806 Phases=2 res_477656_pu

New Load.load_p1ulv10765 conn=wye bus1=p1ulv10765.1.2 kV=0.2080002494301389 Vminpu=0.8 Vmaxpu=1.2 model=1 kW=13.89 kvar=1.129018336644702 Phases=2 res_477656_pu

New Load.load_p1ulv10766 conn=wye bus1=p1ulv10766.1.2 kV=0.2080002494301389 Vminpu=0.8 Vmaxpu=1.2 model=1 kW=15.32 kvar=1.2415506345973724 Phases=2 res_477656_pu

New Load.load_p1ulv10767 conn=wye bus1=p1ulv10767.1.2 kV=0.2080002494301389 Vminpu=0.8 Vmaxpu=1.2 model=1 kW=15.13 kvar=1.2285170803553642 Phases=2 res_477656_pu

New Load.load_p1ulv10768 conn=wye bus1=p1ulv10768.1.2 kV=0.2080002494301389 Vminpu=0.8 Vmaxpu=1.2 model=1 kW=15.700000000000001 kvar=1.2686336247849492 Phases=2 res_477656_pu

New Load.load_p1ulv10769 conn=wye bus1=p1ulv10769.1.2 kV=0.2080002494301389 Vminpu=0.8 Vmaxpu=1.2 model=1 kW=15.82 kvar=1.2787341144680489 Phases=2 res_477656_pu

New Load.load_p1ulv10983 conn=wye bus1=p1ulv10983.1.2 kV=0.2080002494301389 Vminpu=0.8 Vmaxpu=1.2 model=1 kW=11.52 kvar=1.5103368240093782 Phases=2 res_477656_pu

New Load.load_p1ulv11351 conn=wye bus1=p1ulv11351.1.2 kV=0.2080002494301389 Vminpu=0.8 Vmaxpu=1.2 model=1 kW=15.39 kvar=1.2508535330251045 Phases=2 res_477656_pu

New Load.load_p1ulv11380 conn=wye bus1=p1ulv11380.1.2 kV=0.2080002494301389 Vminpu=0.8 Vmaxpu=1.2 model=1 kW=14.98 kvar=1.2194642456011087 Phases=2 res_477656_pu

New Load.load_p1ulv12014 conn=wye bus1=p1ulv12014.1.2 kV=0.2080002494301389 Vminpu=0.8 Vmaxpu=1.2 model=1 kW=15.450000000000001 kvar=1.2484326454187498 Phases=2 res_477656_pu

New Load.load_p1ulv12015 conn=wye bus1=p1ulv12015.1.2 kV=0.2080002494301389 Vminpu=0.8 Vmaxpu=1.2 model=1 kW=12.92 kvar=1.0498234284108339 Phases=2 res_477656_pu

New Load.load_p1ulv12016 conn=wye bus1=p1ulv12016.1.2 kV=0.2080002494301389 Vminpu=0.8 Vmaxpu=1.2 model=1 kW=15.950000000000001 kvar=1.298860955447827 Phases=2 res_477656_pu

New Load.load_p1ulv12017 conn=wye bus1=p1ulv12017.1.2 kV=0.2080002494301389 Vminpu=0.8 Vmaxpu=1.2 model=1 kW=14.450000000000001 kvar=1.1706634455471703 Phases=2 res_477656_pu

New Load.load_p1ulv12018 conn=wye bus1=p1ulv12018.1.2 kV=0.2080002494301389 Vminpu=0.8 Vmaxpu=1.2 model=1 kW=17.42 kvar=1.4116819136661152 Phases=2 res_477656_pu

New Load.load_p1ulv12019 conn=wye bus1=p1ulv12019.1.2 kV=0.2080002494301389 Vminpu=0.8 Vmaxpu=1.2 model=1 kW=16.16 kvar=1.30838712713042 Phases=2 res_477656_pu

New Load.load_p1ulv12020 conn=wye bus1=p1ulv12020.1.2.3 kV=0.48 Vminpu=0.8 Vmaxpu=1.2 model=1 kW=114.22 kvar=9.277851733697974 Phases=3 res_477656_pu

New Load.load_p1ulv12027 conn=wye bus1=p1ulv12027.1.2 kV=0.2080002494301389 Vminpu=0.8 Vmaxpu=1.2 model=1 kW=16.4 kvar=1.3286426350644502 Phases=2 res_477656_pu

New Load.load_p1ulv12641 conn=wye bus1=p1ulv12641.1.2 kV=0.2080002494301389 Vminpu=0.8 Vmaxpu=1.2 model=1 kW=14.49 kvar=1.1807837972142463 Phases=2 res_477656_pu

New Load.load_p1ulv13260 conn=wye bus1=p1ulv13260.1.2 kV=0.2080002494301389 Vminpu=0.8 Vmaxpu=1.2 model=1 kW=14.36 kvar=1.1685689187762893 Phases=2 res_477656_pu

New Load.load_p1ulv13261 conn=wye bus1=p1ulv13261.1.2 kV=0.2080002494301389 Vminpu=0.8 Vmaxpu=1.2 model=1 kW=13.86 kvar=1.1307416199202263 Phases=2 res_477656_pu

New Load.load_p1ulv13262 conn=wye bus1=p1ulv13262.1.2 kV=0.2080002494301389 Vminpu=0.8 Vmaxpu=1.2 model=1 kW=15.93 kvar=1.2901589928032249 Phases=2 res_477656_pu

New Load.load_p1ulv13263 conn=wye bus1=p1ulv13263.1.2 kV=0.2080002494301389 Vminpu=0.8 Vmaxpu=1.2 model=1 kW=17.13 kvar=1.3909660394491736 Phases=2 res_477656_pu

New Load.load_p1ulv13264 conn=wye bus1=p1ulv13264.1.2 kV=0.2080002494301389 Vminpu=0.8 Vmaxpu=1.2 model=1 kW=15.88 kvar=1.2894346785455655 Phases=2 res_477656_pu

New Load.load_p1ulv13265 conn=wye bus1=p1ulv13265.1.2 kV=0.2080002494301389 Vminpu=0.8 Vmaxpu=1.2 model=1 kW=14.41 kvar=1.1696300687715029 Phases=2 res_477656_pu

New Load.load_p1ulv13266 conn=wye bus1=p1ulv13266.1.2 kV=0.2080002494301389 Vminpu=0.8 Vmaxpu=1.2 model=1 kW=13.8 kvar=1.1208959902193418 Phases=2 res_477656_pu

New Load.load_p1ulv13267 conn=wye bus1=p1ulv13267.1.2 kV=0.2080002494301389 Vminpu=0.8 Vmaxpu=1.2 model=1 kW=14.24 kvar=1.1604256664843182 Phases=2 res_477656_pu

New Load.load_p1ulv13272 conn=wye bus1=p1ulv13272.1.2 kV=0.2080002494301389 Vminpu=0.8 Vmaxpu=1.2 model=1 kW=33.43 kvar=2.721902436722067 Phases=2 res_477656_pu

New Load.load_p1ulv13275 conn=wye bus1=p1ulv13275.1.2 kV=0.2080002494301389 Vminpu=0.8 Vmaxpu=1.2 model=1 kW=13.48 kvar=1.088842888327837 Phases=2 res_477656_pu

New Load.load_p1ulv13279 conn=wye bus1=p1ulv13279.1.2 kV=0.2080002494301389 Vminpu=0.8 Vmaxpu=1.2 model=1 kW=16.04 kvar=1.300285734096111 Phases=2 res_477656_pu

New Load.load_p1ulv13281 conn=wye bus1=p1ulv13281.1.2 kV=0.2080002494301389 Vminpu=0.8 Vmaxpu=1.2 model=1 kW=13.93 kvar=1.131048923251042 Phases=2 res_477656_pu

New Load.load_p1ulv13892 conn=wye bus1=p1ulv13892.1.2 kV=0.2080002494301389 Vminpu=0.8 Vmaxpu=1.2 model=1 kW=13.58 kvar=1.0997742311487098 Phases=2 res_477656_pu

New Load.load_p1ulv13893 conn=wye bus1=p1ulv13893.1.2 kV=0.2080002494301389 Vminpu=0.8 Vmaxpu=1.2 model=1 kW=14.15 kvar=1.149324202708102 Phases=2 res_477656_pu

New Load.load_p1ulv13894 conn=wye bus1=p1ulv13894.1.2 kV=0.2080002494301389 Vminpu=0.8 Vmaxpu=1.2 model=1 kW=16.42 kvar=1.3306679833230275 Phases=2 res_477656_pu

New Load.load_p1ulv13895 conn=wye bus1=p1ulv13895.1.2 kV=0.2080002494301389 Vminpu=0.8 Vmaxpu=1.2 model=1 kW=14.92 kvar=1.2091450624601374 Phases=2 res_477656_pu

New Load.load_p1ulv13896 conn=wye bus1=p1ulv13896.1.2 kV=0.2080002494301389 Vminpu=0.8 Vmaxpu=1.2 model=1 kW=12.15 kvar=0.9894153325398525 Phases=2 res_477656_pu

New Load.load_p1ulv13900 conn=wye bus1=p1ulv13900.1.2 kV=0.2080002494301389 Vminpu=0.8 Vmaxpu=1.2 model=1 kW=12.94 kvar=1.0498234284108339 Phases=2 res_477656_pu

New Load.load_p1ulv14106 conn=wye bus1=p1ulv14106.1.2 kV=0.2080002494301389 Vminpu=0.8 Vmaxpu=1.2 model=1 kW=12.99 kvar=1.7095675595388833 Phases=2 res_477656_pu

New Load.load_p1ulv14107 conn=wye bus1=p1ulv14107.1.2 kV=0.2080002494301389 Vminpu=0.8 Vmaxpu=1.2 model=1 kW=15.43 kvar=2.0301892891399462 Phases=2 res_477656_pu

New Load.load_p1ulv14488 conn=wye bus1=p1ulv14488.1.2 kV=0.2080002494301389 Vminpu=0.8 Vmaxpu=1.2 model=1 kW=14.21 kvar=1.1504099629613984 Phases=2 res_477656_pu

New Load.load_p1ulv14489 conn=wye bus1=p1ulv14489.1.2 kV=0.2080002494301389 Vminpu=0.8 Vmaxpu=1.2 model=1 kW=16.35 kvar=1.3314360004287842 Phases=2 res_477656_pu

New Load.load_p1ulv14490 conn=wye bus1=p1ulv14490.1.2 kV=0.2080002494301389 Vminpu=0.8 Vmaxpu=1.2 model=1 kW=16.77 kvar=1.3590228589431081 Phases=2 res_477656_pu

New Load.load_p1ulv14491 conn=wye bus1=p1ulv14491.1.2 kV=0.2080002494301389 Vminpu=0.8 Vmaxpu=1.2 model=1 kW=14.47 kvar=1.1787479841412536 Phases=2 res_477656_pu

New Load.load_p1ulv15108 conn=wye bus1=p1ulv15108.1.2 kV=0.2080002494301389 Vminpu=0.8 Vmaxpu=1.2 model=1 kW=6.3100000000000005 kvar=0.5097594376956769 Phases=2 res_477656_pu

New Load.load_p1ulv15112 conn=wye bus1=p1ulv15112.1.2 kV=0.2080002494301389 Vminpu=0.8 Vmaxpu=1.2 model=1 kW=16.36 kvar=1.3314360004287842 Phases=2 res_477656_pu

New Load.load_p1ulv15113 conn=wye bus1=p1ulv15113.1.2 kV=0.2080002494301389 Vminpu=0.8 Vmaxpu=1.2 model=1 kW=23.67 kvar=1.9180230290069313 Phases=2 res_477656_pu

New Load.load_p1ulv15730 conn=wye bus1=p1ulv15730.1.2 kV=0.2080002494301389 Vminpu=0.8 Vmaxpu=1.2 model=1 kW=12.74 kvar=1.0409343578723245 Phases=2 res_477656_pu

New Load.load_p1ulv15731 conn=wye bus1=p1ulv15731.1.2 kV=0.2080002494301389 Vminpu=0.8 Vmaxpu=1.2 model=1 kW=14.32 kvar=1.1605367042542845 Phases=2 res_477656_pu

New Load.load_p1ulv15732 conn=wye bus1=p1ulv15732.1.2 kV=0.2080002494301389 Vminpu=0.8 Vmaxpu=1.2 model=1 kW=16.92 kvar=1.3711749484945712 Phases=2 res_477656_pu

New Load.load_p1ulv15733 conn=wye bus1=p1ulv15733.1.2 kV=0.2080002494301389 Vminpu=0.8 Vmaxpu=1.2 model=1 kW=14.780000000000001 kvar=1.200088867866603 Phases=2 res_477656_pu

New Load.load_p1ulv15734 conn=wye bus1=p1ulv15734.1.2 kV=0.2080002494301389 Vminpu=0.8 Vmaxpu=1.2 model=1 kW=17.73 kvar=1.4397001180013347 Phases=2 res_477656_pu

New Load.load_p1ulv15735 conn=wye bus1=p1ulv15735.1.2 kV=0.2080002494301389 Vminpu=0.8 Vmaxpu=1.2 model=1 kW=19.06 kvar=1.5513058481250768 Phases=2 res_477656_pu

New Load.load_p1ulv15736 conn=wye bus1=p1ulv15736.1.2 kV=0.2080002494301389 Vminpu=0.8 Vmaxpu=1.2 model=1 kW=14.32 kvar=1.1605367042542845 Phases=2 res_477656_pu

New Load.load_p1ulv15737 conn=wye bus1=p1ulv15737.1.2 kV=0.2080002494301389 Vminpu=0.8 Vmaxpu=1.2 model=1 kW=43.64 kvar=3.5362985664409554 Phases=2 res_477656_pu

New Load.load_p1ulv15738 conn=wye bus1=p1ulv15738.1.2 kV=0.2080002494301389 Vminpu=0.8 Vmaxpu=1.2 model=1 kW=17.59 kvar=1.43119084100543 Phases=2 res_477656_pu

New Load.load_p1ulv15742 conn=wye bus1=p1ulv15742.1.2 kV=0.2080002494301389 Vminpu=0.8 Vmaxpu=1.2 model=1 kW=14.13 kvar=1.1502466011193542 Phases=2 res_477656_pu

New Load.load_p1ulv16376 conn=wye bus1=p1ulv16376.1.2.3 kV=0.48 Vminpu=0.8 Vmaxpu=1.2 model=1 kW=85.25 kvar=6.924361245217735 Phases=3 res_477656_pu

New Load.load_p1ulv16379 conn=wye bus1=p1ulv16379.1.2 kV=0.2080002494301389 Vminpu=0.8 Vmaxpu=1.2 model=1 kW=13.44 kvar=1.0896474898558242 Phases=2 res_477656_pu

New Load.load_p1ulv16380 conn=wye bus1=p1ulv16380.1.2 kV=0.2080002494301389 Vminpu=0.8 Vmaxpu=1.2 model=1 kW=14.32 kvar=1.1605367042542845 Phases=2 res_477656_pu

New Load.load_p1ulv16381 conn=wye bus1=p1ulv16381.1.2 kV=0.2080002494301389 Vminpu=0.8 Vmaxpu=1.2 model=1 kW=14.1 kvar=1.151151897424806 Phases=2 res_477656_pu

New Load.load_p1ulv16382 conn=wye bus1=p1ulv16382.1.2 kV=0.2080002494301389 Vminpu=0.8 Vmaxpu=1.2 model=1 kW=13.26 kvar=1.0789911077515342 Phases=2 res_477656_pu

New Load.load_p1ulv16383 conn=wye bus1=p1ulv16383.1.2 kV=0.2080002494301389 Vminpu=0.8 Vmaxpu=1.2 model=1 kW=13.68 kvar=1.110741026601035 Phases=2 res_477656_pu

New Load.load_p1ulv16388 conn=wye bus1=p1ulv16388.1.2.3 kV=0.48 Vminpu=0.8 Vmaxpu=1.2 model=1 kW=77.38 kvar=6.284726464220623 Phases=3 res_477656_pu

New Load.load_p1ulv16391 conn=wye bus1=p1ulv16391.1.2 kV=0.2080002494301389 Vminpu=0.8 Vmaxpu=1.2 model=1 kW=13.92 kvar=1.131048923251042 Phases=2 res_477656_pu

New Load.load_p1ulv17040 conn=wye bus1=p1ulv17040.1.2 kV=0.2080002494301389 Vminpu=0.8 Vmaxpu=1.2 model=1 kW=16.23 kvar=1.3212548992507473 Phases=2 res_477656_pu

New Load.load_p1ulv17262 conn=wye bus1=p1ulv17262.1.2 kV=0.2080002494301389 Vminpu=0.8 Vmaxpu=1.2 model=1 kW=19.37 kvar=1.5696611031833951 Phases=2 res_477656_pu

New Load.load_p1ulv17663 conn=wye bus1=p1ulv17663.1.2 kV=0.2080002494301389 Vminpu=0.8 Vmaxpu=1.2 model=1 kW=18.82 kvar=1.529047959266903 Phases=2 res_477656_pu

New Load.load_p1ulv17664 conn=wye bus1=p1ulv17664.1.2 kV=0.2080002494301389 Vminpu=0.8 Vmaxpu=1.2 model=1 kW=14.88 kvar=1.2113209933091376 Phases=2 res_477656_pu

New Load.load_p1ulv17665 conn=wye bus1=p1ulv17665.1.2 kV=0.2080002494301389 Vminpu=0.8 Vmaxpu=1.2 model=1 kW=20.31 kvar=1.6488525690409657 Phases=2 res_477656_pu

New Load.load_p1ulv17666 conn=wye bus1=p1ulv17666.1.2 kV=0.2080002494301389 Vminpu=0.8 Vmaxpu=1.2 model=1 kW=14.51 kvar=1.1807837972142463 Phases=2 res_477656_pu

New Load.load_p1ulv17667 conn=wye bus1=p1ulv17667.1.2 kV=0.2080002494301389 Vminpu=0.8 Vmaxpu=1.2 model=1 kW=15.93 kvar=1.2901589928032249 Phases=2 res_477656_pu

New Load.load_p1ulv17668 conn=wye bus1=p1ulv17668.1.2 kV=0.2080002494301389 Vminpu=0.8 Vmaxpu=1.2 model=1 kW=14.82 kvar=1.2010436694258284 Phases=2 res_477656_pu

New Load.load_p1ulv17669 conn=wye bus1=p1ulv17669.1.2 kV=0.2080002494301389 Vminpu=0.8 Vmaxpu=1.2 model=1 kW=13.74 kvar=1.119709405024463 Phases=2 res_477656_pu

New Load.load_p1ulv17670 conn=wye bus1=p1ulv17670.1.2 kV=0.2080002494301389 Vminpu=0.8 Vmaxpu=1.2 model=1 kW=15.0 kvar=1.2215000586741016 Phases=2 res_477656_pu

New Load.load_p1ulv17908 conn=wye bus1=p1ulv17908.1.2 kV=0.2080002494301389 Vminpu=0.8 Vmaxpu=1.2 model=1 kW=15.13 kvar=1.9907046302068412 Phases=2 res_477656_pu

New Load.load_p1ulv17909 conn=wye bus1=p1ulv17909.1.2 kV=0.2080002494301389 Vminpu=0.8 Vmaxpu=1.2 model=1 kW=31.71 kvar=2.5768347093115778 Phases=2 res_477656_pu

New Load.load_p1ulv18272 conn=wye bus1=p1ulv18272.1.2 kV=0.2080002494301389 Vminpu=0.8 Vmaxpu=1.2 model=1 kW=15.06 kvar=1.219271803753023 Phases=2 res_477656_pu

New Load.load_p1ulv18314 conn=wye bus1=p1ulv18314.1.2 kV=0.2080002494301389 Vminpu=0.8 Vmaxpu=1.2 model=1 kW=16.76 kvar=1.3590228589431081 Phases=2 res_477656_pu

New Load.load_p1ulv18315 conn=wye bus1=p1ulv18315.1.2 kV=0.2080002494301389 Vminpu=0.8 Vmaxpu=1.2 model=1 kW=13.790000000000001 kvar=1.1208959902193418 Phases=2 res_477656_pu

New Load.load_p1ulv18316 conn=wye bus1=p1ulv18316.1.2 kV=0.2080002494301389 Vminpu=0.8 Vmaxpu=1.2 model=1 kW=15.64 kvar=1.2711593990885048 Phases=2 res_477656_pu

New Load.load_p1ulv18317 conn=wye bus1=p1ulv18317.1.2 kV=0.2080002494301389 Vminpu=0.8 Vmaxpu=1.2 model=1 kW=16.95 kvar=1.3802955141806108 Phases=2 res_477656_pu

New Load.load_p1ulv18318 conn=wye bus1=p1ulv18318.1.2 kV=0.2080002494301389 Vminpu=0.8 Vmaxpu=1.2 model=1 kW=16.59 kvar=1.349758318085719 Phases=2 res_477656_pu

New Load.load_p1ulv18319 conn=wye bus1=p1ulv18319.1.2 kV=0.2080002494301389 Vminpu=0.8 Vmaxpu=1.2 model=1 kW=16.59 kvar=1.3483237207160328 Phases=2 res_477656_pu

New Load.load_p1ulv18320 conn=wye bus1=p1ulv18320.1.2.3 kV=0.48 Vminpu=0.8 Vmaxpu=1.2 model=1 kW=142.31 kvar=11.558220798483905 Phases=3 res_477656_pu

New Load.load_p1ulv18326 conn=wye bus1=p1ulv18326.1.2 kV=0.2080002494301389 Vminpu=0.8 Vmaxpu=1.2 model=1 kW=14.540000000000001 kvar=1.1787648385814788 Phases=2 res_477656_pu

New Load.load_p1ulv18327 conn=wye bus1=p1ulv18327.1.2 kV=0.2080002494301389 Vminpu=0.8 Vmaxpu=1.2 model=1 kW=13.71 kvar=1.109900972441596 Phases=2 res_477656_pu

New Load.load_p1ulv18992 conn=wye bus1=p1ulv18992.1.2 kV=0.2080002494301389 Vminpu=0.8 Vmaxpu=1.2 model=1 kW=15.14 kvar=1.2305476669617041 Phases=2 res_477656_pu

New Load.load_p1ulv18993 conn=wye bus1=p1ulv18993.1.2 kV=0.2080002494301389 Vminpu=0.8 Vmaxpu=1.2 model=1 kW=18.240000000000002 kvar=1.4785184061991627 Phases=2 res_477656_pu

New Load.load_p1ulv18994 conn=wye bus1=p1ulv18994.1.2 kV=0.2080002494301389 Vminpu=0.8 Vmaxpu=1.2 model=1 kW=18.44 kvar=1.498587129585196 Phases=2 res_477656_pu

New Load.load_p1ulv18995 conn=wye bus1=p1ulv18995.1.2 kV=0.2080002494301389 Vminpu=0.8 Vmaxpu=1.2 model=1 kW=13.63 kvar=1.109528303846426 Phases=2 res_477656_pu

New Load.load_p1ulv18996 conn=wye bus1=p1ulv18996.1.2 kV=0.2080002494301389 Vminpu=0.8 Vmaxpu=1.2 model=1 kW=13.61 kvar=1.1103293013878959 Phases=2 res_477656_pu

New Load.load_p1ulv18997 conn=wye bus1=p1ulv18997.1.2 kV=0.2080002494301389 Vminpu=0.8 Vmaxpu=1.2 model=1 kW=13.38 kvar=1.0891701731164982 Phases=2 res_477656_pu

New Load.load_p1ulv18998 conn=wye bus1=p1ulv18998.1.2.3 kV=0.48 Vminpu=0.8 Vmaxpu=1.2 model=1 kW=109.99000000000001 kvar=8.934662291360443 Phases=3 res_477656_pu

New Load.load_p1ulv19637 conn=wye bus1=p1ulv19637.1.2 kV=0.2080002494301389 Vminpu=0.8 Vmaxpu=1.2 model=1 kW=16.67 kvar=1.3509214659087996 Phases=2 res_477656_pu

New Load.load_p1ulv19638 conn=wye bus1=p1ulv19638.1.2 kV=0.2080002494301389 Vminpu=0.8 Vmaxpu=1.2 model=1 kW=17.11 kvar=1.3909660394491736 Phases=2 res_477656_pu

New Load.load_p1ulv19640 conn=wye bus1=p1ulv19640.1.2 kV=0.2080002494301389 Vminpu=0.8 Vmaxpu=1.2 model=1 kW=18.05 kvar=1.4698712893922927 Phases=2 res_477656_pu

New Load.load_p1ulv19641 conn=wye bus1=p1ulv19641.1.2 kV=0.2080002494301389 Vminpu=0.8 Vmaxpu=1.2 model=1 kW=15.5 kvar=1.2589758794504644 Phases=2 res_477656_pu

New Load.load_p1ulv19643 conn=wye bus1=p1ulv19643.1.2 kV=0.2080002494301389 Vminpu=0.8 Vmaxpu=1.2 model=1 kW=32.36 kvar=2.6275993744700785 Phases=2 res_477656_pu

New Load.load_p1ulv20266 conn=wye bus1=p1ulv20266.1.2 kV=0.2080002494301389 Vminpu=0.8 Vmaxpu=1.2 model=1 kW=16.32 kvar=1.3294001873557917 Phases=2 res_477656_pu

New Load.load_p1ulv20267 conn=wye bus1=p1ulv18319.1.2 kV=0.2080002494301389 Vminpu=0.8 Vmaxpu=1.2 model=1 kW=15.41 kvar=1.2508535330251045 Phases=2 res_477656_pu

New Load.load_p1ulv20273 conn=wye bus1=p1ulv20273.1.2 kV=0.2080002494301389 Vminpu=0.8 Vmaxpu=1.2 model=1 kW=16.65 kvar=1.348896117650222 Phases=2 res_477656_pu

New Load.load_p1ulv20514 conn=wye bus1=p1ulv20514.1.2.3 kV=0.48 Vminpu=0.8 Vmaxpu=1.2 model=1 kW=100.43 kvar=13.203371978677001 Phases=3 res_477656_pu

New Load.load_p1ulv20911 conn=wye bus1=p1ulv20911.1.2 kV=0.2080002494301389 Vminpu=0.8 Vmaxpu=1.2 model=1 kW=13.43 kvar=1.0904351605376348 Phases=2 res_477656_pu

New Load.load_p1ulv20912 conn=wye bus1=p1ulv20912.1.2 kV=0.2080002494301389 Vminpu=0.8 Vmaxpu=1.2 model=1 kW=13.06 kvar=1.059976361442534 Phases=2 res_477656_pu

New Load.load_p1ulv20913 conn=wye bus1=p1ulv20913.1.2 kV=0.2080002494301389 Vminpu=0.8 Vmaxpu=1.2 model=1 kW=13.63 kvar=1.109528303846426 Phases=2 res_477656_pu

New Load.load_p1ulv20914 conn=wye bus1=p1ulv20914.1.2 kV=0.2080002494301389 Vminpu=0.8 Vmaxpu=1.2 model=1 kW=14.65 kvar=1.1899359348349032 Phases=2 res_477656_pu

New Load.load_p1ulv20915 conn=wye bus1=p1ulv20915.1.2 kV=0.2080002494301389 Vminpu=0.8 Vmaxpu=1.2 model=1 kW=14.57 kvar=1.180790186840056 Phases=2 res_477656_pu

New Load.load_p1ulv20920 conn=wye bus1=p1ulv20920.1.2 kV=0.2080002494301389 Vminpu=0.8 Vmaxpu=1.2 model=1 kW=19.79 kvar=1.6082408369141645 Phases=2 res_477656_pu

New Load.load_p1ulv21560 conn=wye bus1=p1ulv21560.1.2 kV=0.2080002494301389 Vminpu=0.8 Vmaxpu=1.2 model=1 kW=16.15 kvar=1.30838712713042 Phases=2 res_477656_pu

New Load.load_p1ulv21561 conn=wye bus1=p1ulv21561.1.2 kV=0.2080002494301389 Vminpu=0.8 Vmaxpu=1.2 model=1 kW=15.790000000000001 kvar=1.2800322515103388 Phases=2 res_477656_pu

New Load.load_p1ulv21562 conn=wye bus1=p1ulv21562.1.2 kV=0.2080002494301389 Vminpu=0.8 Vmaxpu=1.2 model=1 kW=14.25 kvar=1.1604256664843182 Phases=2 res_477656_pu

New Load.load_p1ulv21563 conn=wye bus1=p1ulv21563.1.2 kV=0.2080002494301389 Vminpu=0.8 Vmaxpu=1.2 model=1 kW=15.73 kvar=1.280538637790892 Phases=2 res_477656_pu

New Load.load_p1ulv22154 conn=wye bus1=p1ulv22154.1.2 kV=0.2080002494301389 Vminpu=0.8 Vmaxpu=1.2 model=1 kW=17.51 kvar=1.4214248385442743 Phases=2 res_477656_pu

New Load.load_p1ulv22155 conn=wye bus1=p1ulv22155.1.2 kV=0.2080002494301389 Vminpu=0.8 Vmaxpu=1.2 model=1 kW=16.37 kvar=1.3300484412589724 Phases=2 res_477656_pu

New Load.load_p1ulv22156 conn=wye bus1=p1ulv22156.1.2 kV=0.2080002494301389 Vminpu=0.8 Vmaxpu=1.2 model=1 kW=15.56 kvar=1.2597787689245672 Phases=2 res_477656_pu

New Load.load_p1ulv22165 conn=wye bus1=p1ulv22165.1.2 kV=0.2080002494301389 Vminpu=0.8 Vmaxpu=1.2 model=1 kW=13.34 kvar=1.0795207485629381 Phases=2 res_477656_pu

New Load.load_p1ulv22804 conn=wye bus1=p1ulv22804.1.2.3 kV=0.48 Vminpu=0.8 Vmaxpu=1.2 model=1 kW=78.77 kvar=6.398439314175667 Phases=3 res_477656_pu

New Load.load_p1ulv23445 conn=wye bus1=p1ulv23445.1.2 kV=0.2080002494301389 Vminpu=0.8 Vmaxpu=1.2 model=1 kW=13.84 kvar=1.1200297390827405 Phases=2 res_477656_pu

New Load.load_p1ulv23446 conn=wye bus1=p1ulv13895.1.2 kV=0.2080002494301389 Vminpu=0.8 Vmaxpu=1.2 model=1 kW=15.9 kvar=1.2914652651519052 Phases=2 res_477656_pu

New Load.load_p1ulv23447 conn=wye bus1=p1ulv1311.1.2 kV=0.2080002494301389 Vminpu=0.8 Vmaxpu=1.2 model=1 kW=14.01 kvar=1.1400675357543906 Phases=2 res_477656_pu

New Load.load_p1ulv23454 conn=wye bus1=p1ulv23454.1.2 kV=0.2080002494301389 Vminpu=0.8 Vmaxpu=1.2 model=1 kW=29.26 kvar=2.381921653532274 Phases=2 res_477656_pu

New Load.load_p1ulv23663 conn=wye bus1=p1ulv23663.1.2 kV=0.2080002494301389 Vminpu=0.8 Vmaxpu=1.2 model=1 kW=42.7 kvar=3.4682825353609203 Phases=2 res_477656_pu

New Load.load_p1ulv24114 conn=wye bus1=p1ulv24114.1.2 kV=0.2080002494301389 Vminpu=0.8 Vmaxpu=1.2 model=1 kW=7.44 kvar=0.6004270372747549 Phases=2 res_477656_pu

New Load.load_p1ulv24115 conn=wye bus1=p1ulv24115.1.2.3 kV=0.48 Vminpu=0.8 Vmaxpu=1.2 model=1 kW=94.75 kvar=7.696004461493016 Phases=3 res_477656_pu

New Load.load_p1ulv24117 conn=wye bus1=p1ulv24117.1.2 kV=0.2080002494301389 Vminpu=0.8 Vmaxpu=1.2 model=1 kW=13.27 kvar=1.0810269208245273 Phases=2 res_477656_pu

New Load.load_p1ulv24713 conn=wye bus1=p1ulv24713.1.2 kV=0.2080002494301389 Vminpu=0.8 Vmaxpu=1.2 model=1 kW=13.84 kvar=1.1200297390827405 Phases=2 res_477656_pu

New Load.load_p1ulv24714 conn=wye bus1=p1ulv24714.1.2 kV=0.2080002494301389 Vminpu=0.8 Vmaxpu=1.2 model=1 kW=15.55 kvar=1.2597787689245672 Phases=2 res_477656_pu

New Load.load_p1ulv24715 conn=wye bus1=p1ulv24715.1.2 kV=0.2080002494301389 Vminpu=0.8 Vmaxpu=1.2 model=1 kW=15.38 kvar=1.2488229464187643 Phases=2 res_477656_pu

New Load.load_p1ulv24716 conn=wye bus1=p1ulv24716.1.2.3 kV=0.48 Vminpu=0.8 Vmaxpu=1.2 model=1 kW=53.68 kvar=4.359710055544198 Phases=3 res_477656_pu

New Load.load_p1ulv24957 conn=wye bus1=p1ulv24957.1.2 kV=0.2080002494301389 Vminpu=0.8 Vmaxpu=1.2 model=1 kW=42.730000000000004 kvar=3.4703131219672607 Phases=2 res_477656_pu

New Load.load_p1ulv24958 conn=wye bus1=p1ulv24958.1.2 kV=0.2080002494301389 Vminpu=0.8 Vmaxpu=1.2 model=1 kW=15.35 kvar=1.2500014416960006 Phases=2 res_477656_pu

New Load.load_p1ulv25343 conn=wye bus1=p1ulv25343.1.2 kV=0.2080002494301389 Vminpu=0.8 Vmaxpu=1.2 model=1 kW=3.5 kvar=0.2798584994418662 Phases=2 res_477656_pu

New Load.load_p1ulv25344 conn=wye bus1=p1ulv25344.1.2.3 kV=0.48 Vminpu=0.8 Vmaxpu=1.2 model=1 kW=87.63 kvar=7.117287278686104 Phases=3 res_477656_pu

New Load.load_p1ulv25346 conn=wye bus1=p1ulv25346.1.2 kV=0.2080002494301389 Vminpu=0.8 Vmaxpu=1.2 model=1 kW=13.6 kvar=1.0989433780109366 Phases=2 res_477656_pu

New Load.load_p1ulv25347 conn=wye bus1=p1ulv25347.1.2 kV=0.2080002494301389 Vminpu=0.8 Vmaxpu=1.2 model=1 kW=12.91 kvar=1.0504897247296356 Phases=2 res_477656_pu

New Load.load_p1ulv25351 conn=wye bus1=p1ulv25351.1.2 kV=0.2080002494301389 Vminpu=0.8 Vmaxpu=1.2 model=1 kW=13.370000000000001 kvar=1.0891701731164982 Phases=2 res_477656_pu

New Load.load_p1ulv25990 conn=wye bus1=p1ulv25990.1.2 kV=0.2080002494301389 Vminpu=0.8 Vmaxpu=1.2 model=1 kW=13.290000000000001 kvar=1.0802822275059345 Phases=2 res_477656_pu

New Load.load_p1ulv25991 conn=wye bus1=p1ulv25991.1.2 kV=0.2080002494301389 Vminpu=0.8 Vmaxpu=1.2 model=1 kW=15.11 kvar=1.2296433109660727 Phases=2 res_477656_pu

New Load.load_p1ulv25992 conn=wye bus1=p1ulv25992.1.2 kV=0.2080002494301389 Vminpu=0.8 Vmaxpu=1.2 model=1 kW=15.6 kvar=1.270359572425928 Phases=2 res_477656_pu

New Load.load_p1ulv26619 conn=wye bus1=p1ulv26619.1.2 kV=0.2080002494301389 Vminpu=0.8 Vmaxpu=1.2 model=1 kW=13.02 kvar=1.0606687900945995 Phases=2 res_477656_pu

New Load.load_p1ulv26620 conn=wye bus1=p1ulv26620.1.2 kV=0.2080002494301389 Vminpu=0.8 Vmaxpu=1.2 model=1 kW=15.59 kvar=1.270359572425928 Phases=2 res_477656_pu

New Load.load_p1ulv26621 conn=wye bus1=p1ulv26621.1.2 kV=0.2080002494301389 Vminpu=0.8 Vmaxpu=1.2 model=1 kW=13.290000000000001 kvar=1.0810269208245273 Phases=2 res_477656_pu

New Load.load_p1ulv26622 conn=wye bus1=p1ulv26622.1.2.3 kV=0.48 Vminpu=0.8 Vmaxpu=1.2 model=1 kW=77.67 kvar=6.309093503496703 Phases=3 res_477656_pu

New Load.load_p1ulv27285 conn=wye bus1=p1ulv27285.1.2.3 kV=0.48 Vminpu=0.8 Vmaxpu=1.2 model=1 kW=86.17 kvar=6.9994929496523195 Phases=3 res_477656_pu

New Load.load_p1ulv27289 conn=wye bus1=p1ulv27289.1.2 kV=0.2080002494301389 Vminpu=0.8 Vmaxpu=1.2 model=1 kW=14.91 kvar=1.2091450624601374 Phases=2 res_477656_pu

New Load.load_p1ulv27290 conn=wye bus1=p1ulv27290.1.2 kV=0.2080002494301389 Vminpu=0.8 Vmaxpu=1.2 model=1 kW=16.38 kvar=1.3300484412589724 Phases=2 res_477656_pu

New Load.load_p1ulv27296 conn=wye bus1=p1ulv27296.1.2 kV=0.2080002494301389 Vminpu=0.8 Vmaxpu=1.2 model=1 kW=15.76 kvar=1.2813123321202051 Phases=2 res_477656_pu

New Load.load_p1ulv27913 conn=wye bus1=p1ulv27913.1.2.3 kV=0.48 Vminpu=0.8 Vmaxpu=1.2 model=1 kW=90.05 kvar=7.314254179501088 Phases=3 res_477656_pu

New Load.load_p1ulv27914 conn=wye bus1=p1ulv27914.1.2 kV=0.2080002494301389 Vminpu=0.8 Vmaxpu=1.2 model=1 kW=15.26 kvar=1.2407005999934042 Phases=2 res_477656_pu

New Load.load_p1ulv27915 conn=wye bus1=p1ulv27915.1.2 kV=0.2080002494301389 Vminpu=0.8 Vmaxpu=1.2 model=1 kW=14.92 kvar=1.2091450624601374 Phases=2 res_477656_pu

New Load.load_p1ulv27916 conn=wye bus1=p1ulv27916.1.2 kV=0.2080002494301389 Vminpu=0.8 Vmaxpu=1.2 model=1 kW=12.73 kvar=1.0309123903570856 Phases=2 res_477656_pu

New Load.load_p1ulv27917 conn=wye bus1=p1ulv27917.1.2 kV=0.2080002494301389 Vminpu=0.8 Vmaxpu=1.2 model=1 kW=14.450000000000001 kvar=1.1706634455471703 Phases=2 res_477656_pu

New Load.load_p1ulv27918 conn=wye bus1=p1ulv27918.1.2 kV=0.2080002494301389 Vminpu=0.8 Vmaxpu=1.2 model=1 kW=15.040000000000001 kvar=1.219271803753023 Phases=2 res_477656_pu

New Load.load_p1ulv27923 conn=wye bus1=p1ulv27923.1.2 kV=0.2080002494301389 Vminpu=0.8 Vmaxpu=1.2 model=1 kW=14.13 kvar=1.1502466011193542 Phases=2 res_477656_pu

New Load.load_p1ulv28557 conn=wye bus1=p1ulv28557.1.2 kV=0.2080002494301389 Vminpu=0.8 Vmaxpu=1.2 model=1 kW=14.02 kvar=1.1391712696764018 Phases=2 res_477656_pu

New Load.load_p1ulv28558 conn=wye bus1=p1ulv28558.1.2 kV=0.2080002494301389 Vminpu=0.8 Vmaxpu=1.2 model=1 kW=13.780000000000001 kvar=1.1188654036130017 Phases=2 res_477656_pu

New Load.load_p1ulv28559 conn=wye bus1=p1ulv28559.1.2 kV=0.2080002494301389 Vminpu=0.8 Vmaxpu=1.2 model=1 kW=15.32 kvar=1.2415506345973724 Phases=2 res_477656_pu

New Load.load_p1ulv28560 conn=wye bus1=p1ulv28560.1.2 kV=0.2080002494301389 Vminpu=0.8 Vmaxpu=1.2 model=1 kW=15.76 kvar=1.2813123321202051 Phases=2 res_477656_pu

New Load.load_p1ulv28561 conn=wye bus1=p1ulv28561.1.2 kV=0.2080002494301389 Vminpu=0.8 Vmaxpu=1.2 model=1 kW=15.71 kvar=1.280538637790892 Phases=2 res_477656_pu

New Load.load_p1ulv28562 conn=wye bus1=p1ulv28562.1.2 kV=0.2080002494301389 Vminpu=0.8 Vmaxpu=1.2 model=1 kW=12.61 kvar=1.0207856490641993 Phases=2 res_477656_pu

New Load.load_p1ulv28566 conn=wye bus1=p1ulv28566.1.2 kV=0.2080002494301389 Vminpu=0.8 Vmaxpu=1.2 model=1 kW=14.99 kvar=1.2215000586741016 Phases=2 res_477656_pu

New Load.load_p1ulv28569 conn=wye bus1=p1ulv28569.1.2 kV=0.2080002494301389 Vminpu=0.8 Vmaxpu=1.2 model=1 kW=13.4 kvar=1.091205986189491 Phases=2 res_477656_pu

New Load.load_p1ulv29152 conn=wye bus1=p1ulv29152.1.2 kV=0.2080002494301389 Vminpu=0.8 Vmaxpu=1.2 model=1 kW=14.42 kvar=1.1686380972885935 Phases=2 res_477656_pu

New Load.load_p1ulv29155 conn=wye bus1=p1ulv29155.1.2 kV=0.2080002494301389 Vminpu=0.8 Vmaxpu=1.2 model=1 kW=17.06 kvar=1.388438766472582 Phases=2 res_477656_pu

New Load.load_p1ulv29156 conn=wye bus1=p1ulv29156.1.2 kV=0.2080002494301389 Vminpu=0.8 Vmaxpu=1.2 model=1 kW=15.33 kvar=1.2511622571972472 Phases=2 res_477656_pu

New Load.load_p1ulv29157 conn=wye bus1=p1ulv29157.1.2 kV=0.2080002494301389 Vminpu=0.8 Vmaxpu=1.2 model=1 kW=13.55 kvar=1.1005880935693348 Phases=2 res_477656_pu

New Load.load_p1ulv29158 conn=wye bus1=p1ulv29158.1.2 kV=0.2080002494301389 Vminpu=0.8 Vmaxpu=1.2 model=1 kW=13.13 kvar=1.0688120423865706 Phases=2 res_477656_pu

New Load.load_p1ulv29159 conn=wye bus1=p1ulv29159.1.2 kV=0.2080002494301389 Vminpu=0.8 Vmaxpu=1.2 model=1 kW=45.79 kvar=3.7200752745470855 Phases=2 res_477656_pu

New Load.load_p1ulv29163 conn=wye bus1=p1ulv29163.1.2 kV=0.2080002494301389 Vminpu=0.8 Vmaxpu=1.2 model=1 kW=14.06 kvar=1.141201856282742 Phases=2 res_477656_pu

New Load.load_p1ulv29766 conn=wye bus1=p1ulv29766.1.2.3 kV=0.48 Vminpu=0.8 Vmaxpu=1.2 model=1 kW=85.18 kvar=6.918269485398717 Phases=3 res_477656_pu

New Load.load_p1ulv29768 conn=wye bus1=p1ulv29768.1.2 kV=0.2080002494301389 Vminpu=0.8 Vmaxpu=1.2 model=1 kW=13.18 kvar=1.0701292944742342 Phases=2 res_477656_pu

New Load.load_p1ulv29769 conn=wye bus1=p1ulv29769.1.2 kV=0.2080002494301389 Vminpu=0.8 Vmaxpu=1.2 model=1 kW=16.08 kvar=1.3090400208127908 Phases=2 res_477656_pu

New Load.load_p1ulv29770 conn=wye bus1=p1ulv2592.1.2 kV=0.2080002494301389 Vminpu=0.8 Vmaxpu=1.2 model=1 kW=18.77 kvar=1.5210527449775426 Phases=2 res_477656_pu

New Load.load_p1ulv29771 conn=wye bus1=p1ulv29771.1.2 kV=0.2080002494301389 Vminpu=0.8 Vmaxpu=1.2 model=1 kW=15.36 kvar=1.2500014416960006 Phases=2 res_477656_pu

New Load.load_p1ulv29774 conn=wye bus1=p1ulv29774.1.2 kV=0.2080002494301389 Vminpu=0.8 Vmaxpu=1.2 model=1 kW=19.59 kvar=1.5919961440634443 Phases=2 res_477656_pu

New Load.load_p1ulv30404 conn=wye bus1=p1ulv30404.1.2 kV=0.2080002494301389 Vminpu=0.8 Vmaxpu=1.2 model=1 kW=15.56 kvar=1.2597787689245672 Phases=2 res_477656_pu

New Load.load_p1ulv30405 conn=wye bus1=p1ulv30405.1.2 kV=0.2080002494301389 Vminpu=0.8 Vmaxpu=1.2 model=1 kW=14.85 kvar=1.2092851802361448 Phases=2 res_477656_pu

New Load.load_p1ulv30406 conn=wye bus1=p1ulv30406.1.2 kV=0.2080002494301389 Vminpu=0.8 Vmaxpu=1.2 model=1 kW=14.3 kvar=1.1585113559957074 Phases=2 res_477656_pu

New Load.load_p1ulv30408 conn=wye bus1=p1ulv30408.1.2 kV=0.2080002494301389 Vminpu=0.8 Vmaxpu=1.2 model=1 kW=20.39 kvar=1.6612397540666863 Phases=2 res_477656_pu

New Load.load_p1ulv31030 conn=wye bus1=p1ulv31030.1.2 kV=0.2080002494301389 Vminpu=0.8 Vmaxpu=1.2 model=1 kW=14.4 kvar=1.1696300687715029 Phases=2 res_477656_pu

New Load.load_p1ulv31031 conn=wye bus1=p1ulv31031.1.2 kV=0.2080002494301389 Vminpu=0.8 Vmaxpu=1.2 model=1 kW=14.27 kvar=1.1594771357398026 Phases=2 res_477656_pu

New Load.load_p1ulv31032 conn=wye bus1=p1ulv31032.1.2 kV=0.2080002494301389 Vminpu=0.8 Vmaxpu=1.2 model=1 kW=15.97 kvar=1.3008967685208197 Phases=2 res_477656_pu

New Load.load_p1ulv31033 conn=wye bus1=p1ulv31033.1.2.3 kV=0.48 Vminpu=0.8 Vmaxpu=1.2 model=1 kW=64.06 kvar=5.20242380304138 Phases=3 res_477656_pu

New Load.load_p1ulv31034 conn=wye bus1=p1ulv31034.1.2 kV=0.2080002494301389 Vminpu=0.8 Vmaxpu=1.2 model=1 kW=18.62 kvar=1.5088986300778207 Phases=2 res_477656_pu

New Load.load_p1ulv31037 conn=wye bus1=p1ulv31037.1.2 kV=0.2080002494301389 Vminpu=0.8 Vmaxpu=1.2 model=1 kW=21.650000000000002 kvar=1.7585062763699344 Phases=2 res_477656_pu

New Load.load_p1ulv31681 conn=wye bus1=p1ulv31681.1.2 kV=0.2080002494301389 Vminpu=0.8 Vmaxpu=1.2 model=1 kW=14.88 kvar=1.2113209933091376 Phases=2 res_477656_pu

New Load.load_p1ulv31682 conn=wye bus1=p1ulv31682.1.2 kV=0.2080002494301389 Vminpu=0.8 Vmaxpu=1.2 model=1 kW=15.870000000000001 kvar=1.2894346785455655 Phases=2 res_477656_pu

New Load.load_p1ulv31683 conn=wye bus1=p1ulv31683.1.2 kV=0.2080002494301389 Vminpu=0.8 Vmaxpu=1.2 model=1 kW=13.9 kvar=1.129018336644702 Phases=2 res_477656_pu

New Load.load_p1ulv31684 conn=wye bus1=p1ulv31684.1.2 kV=0.2080002494301389 Vminpu=0.8 Vmaxpu=1.2 model=1 kW=14.82 kvar=1.2010436694258284 Phases=2 res_477656_pu

New Load.load_p1ulv31685 conn=wye bus1=p1ulv31685.1.2 kV=0.2080002494301389 Vminpu=0.8 Vmaxpu=1.2 model=1 kW=5.1000000000000005 kvar=0.4099544614599067 Phases=2 res_477656_pu

New Load.load_p1ulv31686 conn=wye bus1=p1ulv31686.1.2 kV=0.2080002494301389 Vminpu=0.8 Vmaxpu=1.2 model=1 kW=15.9 kvar=1.2914652651519052 Phases=2 res_477656_pu

New Load.load_p1ulv31687 conn=wye bus1=p1ulv31687.1.2 kV=0.2080002494301389 Vminpu=0.8 Vmaxpu=1.2 model=1 kW=16.16 kvar=1.3104124753889972 Phases=2 res_477656_pu

New Load.load_p1ulv32299 conn=wye bus1=p1ulv32299.1.2.3 kV=0.48 Vminpu=0.8 Vmaxpu=1.2 model=1 kW=83.14 kvar=6.751761383678834 Phases=3 res_477656_pu

New Load.load_p1ulv32301 conn=wye bus1=p1ulv32301.1.2 kV=0.2080002494301389 Vminpu=0.8 Vmaxpu=1.2 model=1 kW=13.22 kvar=1.0686419089616372 Phases=2 res_477656_pu

New Load.load_p1ulv32302 conn=wye bus1=p1ulv32302.1.2 kV=0.2080002494301389 Vminpu=0.8 Vmaxpu=1.2 model=1 kW=13.6 kvar=1.0989433780109366 Phases=2 res_477656_pu

New Load.load_p1ulv32306 conn=wye bus1=p1ulv32306.1.2 kV=0.2080002494301389 Vminpu=0.8 Vmaxpu=1.2 model=1 kW=15.06 kvar=1.219271803753023 Phases=2 res_477656_pu

New Load.load_p1ulv32960 conn=wye bus1=p1ulv32960.1.2 kV=0.2080002494301389 Vminpu=0.8 Vmaxpu=1.2 model=1 kW=14.6 kvar=1.1889270495062174 Phases=2 res_477656_pu

New Load.load_p1ulv32961 conn=wye bus1=p1ulv32961.1.2 kV=0.2080002494301389 Vminpu=0.8 Vmaxpu=1.2 model=1 kW=14.200000000000001 kvar=1.1504099629613984 Phases=2 res_477656_pu

New Load.load_p1ulv32962 conn=wye bus1=p1ulv32962.1.2 kV=0.2080002494301389 Vminpu=0.8 Vmaxpu=1.2 model=1 kW=16.29 kvar=1.3205412420301414 Phases=2 res_477656_pu

New Load.load_p1ulv32963 conn=wye bus1=p1ulv32963.1.2 kV=0.2080002494301389 Vminpu=0.8 Vmaxpu=1.2 model=1 kW=16.87 kvar=1.3706601733857733 Phases=2 res_477656_pu

New Load.load_p1ulv32964 conn=wye bus1=p1ulv32964.1.2 kV=0.2080002494301389 Vminpu=0.8 Vmaxpu=1.2 model=1 kW=14.15 kvar=1.149324202708102 Phases=2 res_477656_pu

New Load.load_p1ulv32965 conn=wye bus1=p1ulv32965.1.2 kV=0.2080002494301389 Vminpu=0.8 Vmaxpu=1.2 model=1 kW=13.92 kvar=1.131048923251042 Phases=2 res_477656_pu

New Load.load_p1ulv33625 conn=wye bus1=p1ulv33625.1.2 kV=0.2080002494301389 Vminpu=0.8 Vmaxpu=1.2 model=1 kW=18.16 kvar=1.4800503547572565 Phases=2 res_477656_pu

New Load.load_p1ulv33629 conn=wye bus1=p1ulv33629.1.2 kV=0.2080002494301389 Vminpu=0.8 Vmaxpu=1.2 model=1 kW=16.28 kvar=1.3185158937715642 Phases=2 res_477656_pu

New Load.load_p1ulv34275 conn=wye bus1=p1ulv34275.1.2 kV=0.2080002494301389 Vminpu=0.8 Vmaxpu=1.2 model=1 kW=16.6 kvar=1.3483237207160328 Phases=2 res_477656_pu

New Load.load_p1ulv34276 conn=wye bus1=p1ulv17669.1.2 kV=0.2080002494301389 Vminpu=0.8 Vmaxpu=1.2 model=1 kW=15.610000000000001 kvar=1.269128812482165 Phases=2 res_477656_pu

New Load.load_p1ulv34277 conn=wye bus1=p1ulv34277.1.2 kV=0.2080002494301389 Vminpu=0.8 Vmaxpu=1.2 model=1 kW=13.790000000000001 kvar=1.1208959902193418 Phases=2 res_477656_pu

New Load.load_p1ulv34278 conn=wye bus1=p1ulv34278.1.2 kV=0.2080002494301389 Vminpu=0.8 Vmaxpu=1.2 model=1 kW=16.5 kvar=1.3402013742906727 Phases=2 res_477656_pu

New Load.load_p1ulv34504 conn=wye bus1=p1ulv34504.1.2.3 kV=0.48 Vminpu=0.8 Vmaxpu=1.2 model=1 kW=226.31 kvar=29.756067857537143 Phases=3 res_477656_pu

New Load.load_p1ulv34903 conn=wye bus1=p1ulv34903.1.2 kV=0.2080002494301389 Vminpu=0.8 Vmaxpu=1.2 model=1 kW=13.96 kvar=1.1292468671581726 Phases=2 res_477656_pu

New Load.load_p1ulv34904 conn=wye bus1=p1ulv34904.1.2 kV=0.2080002494301389 Vminpu=0.8 Vmaxpu=1.2 model=1 kW=14.05 kvar=1.141201856282742 Phases=2 res_477656_pu

New Load.load_p1ulv34905 conn=wye bus1=p1ulv34905.1.2 kV=0.2080002494301389 Vminpu=0.8 Vmaxpu=1.2 model=1 kW=16.07 kvar=1.3090400208127908 Phases=2 res_477656_pu

New Load.load_p1ulv34906 conn=wye bus1=p1ulv34906.1.2 kV=0.2080002494301389 Vminpu=0.8 Vmaxpu=1.2 model=1 kW=14.47 kvar=1.1787479841412536 Phases=2 res_477656_pu

New Load.load_p1ulv35145 conn=wye bus1=p1ulv35145.1.2 kV=0.2080002494301389 Vminpu=0.8 Vmaxpu=1.2 model=1 kW=24.93 kvar=3.2805499835745806 Phases=2 res_477656_pu

New Load.load_p1ulv35537 conn=wye bus1=p1ulv35537.1.2 kV=0.2080002494301389 Vminpu=0.8 Vmaxpu=1.2 model=1 kW=14.09 kvar=1.1393473568412724 Phases=2 res_477656_pu

New Load.load_p1ulv35538 conn=wye bus1=p1ulv35538.1.2 kV=0.2080002494301389 Vminpu=0.8 Vmaxpu=1.2 model=1 kW=15.71 kvar=1.2785028247178991 Phases=2 res_477656_pu

New Load.load_p1ulv35545 conn=wye bus1=p1ulv35545.1.2 kV=0.2080002494301389 Vminpu=0.8 Vmaxpu=1.2 model=1 kW=13.46 kvar=1.0896474898558242 Phases=2 res_477656_pu

New Load.load_p1ulv36188 conn=wye bus1=p1ulv36188.1.2 kV=0.2080002494301389 Vminpu=0.8 Vmaxpu=1.2 model=1 kW=26.98 kvar=2.19102325410697 Phases=2 res_477656_pu

New Load.load_p1ulv36191 conn=wye bus1=p1ulv36191.1.2 kV=0.2080002494301389 Vminpu=0.8 Vmaxpu=1.2 model=1 kW=16.5 kvar=1.3402013742906727 Phases=2 res_477656_pu

New Load.load_p1ulv36192 conn=wye bus1=p1ulv36192.1.2 kV=0.2080002494301389 Vminpu=0.8 Vmaxpu=1.2 model=1 kW=14.68 kvar=1.1888915798743651 Phases=2 res_477656_pu

New Load.load_p1ulv36193 conn=wye bus1=p1ulv36193.1.2 kV=0.2080002494301389 Vminpu=0.8 Vmaxpu=1.2 model=1 kW=15.38 kvar=1.2488229464187643 Phases=2 res_477656_pu

New Load.load_p1ulv36194 conn=wye bus1=p1ulv36194.1.2 kV=0.2080002494301389 Vminpu=0.8 Vmaxpu=1.2 model=1 kW=13.83 kvar=1.1200297390827405 Phases=2 res_477656_pu

New Load.load_p1ulv36195 conn=wye bus1=p1ulv36195.1.2 kV=0.2080002494301389 Vminpu=0.8 Vmaxpu=1.2 model=1 kW=14.24 kvar=1.1604256664843182 Phases=2 res_477656_pu

New Load.load_p1ulv36196 conn=wye bus1=p1ulv36196.1.2 kV=0.2080002494301389 Vminpu=0.8 Vmaxpu=1.2 model=1 kW=15.32 kvar=1.2415506345973724 Phases=2 res_477656_pu

New Load.load_p1ulv36197 conn=wye bus1=p1ulv36197.1.2 kV=0.2080002494301389 Vminpu=0.8 Vmaxpu=1.2 model=1 kW=12.64 kvar=1.030131593999708 Phases=2 res_477656_pu

New Load.load_p1ulv36417 conn=wye bus1=p1ulv36417.1.2 kV=0.2080002494301389 Vminpu=0.8 Vmaxpu=1.2 model=1 kW=16.76 kvar=1.3605072403540732 Phases=2 res_477656_pu

New Load.load_p1ulv36788 conn=wye bus1=p1ulv36788.1.2 kV=0.2080002494301389 Vminpu=0.8 Vmaxpu=1.2 model=1 kW=13.86 kvar=1.1307416199202263 Phases=2 res_477656_pu

New Load.load_p1ulv36790 conn=wye bus1=p1ulv36790.1.2 kV=0.2080002494301389 Vminpu=0.8 Vmaxpu=1.2 model=1 kW=16.0 kvar=1.2995876115772655 Phases=2 res_477656_pu

New Load.load_p1ulv36791 conn=wye bus1=p1ulv36791.1.2 kV=0.2080002494301389 Vminpu=0.8 Vmaxpu=1.2 model=1 kW=14.71 kvar=1.1909169281329426 Phases=2 res_477656_pu

New Load.load_p1ulv36792 conn=wye bus1=p1ulv36792.1.2 kV=0.2080002494301389 Vminpu=0.8 Vmaxpu=1.2 model=1 kW=13.77 kvar=1.1188654036130017 Phases=2 res_477656_pu

New Load.load_p1ulv37411 conn=wye bus1=p1ulv37411.1.2 kV=0.2080002494301389 Vminpu=0.8 Vmaxpu=1.2 model=1 kW=32.54 kvar=2.6418134807144593 Phases=2 res_477656_pu

New Load.load_p1ulv37412 conn=wye bus1=p1ulv37412.1.2 kV=0.2080002494301389 Vminpu=0.8 Vmaxpu=1.2 model=1 kW=18.88 kvar=1.5291541380118512 Phases=2 res_477656_pu

New Load.load_p1ulv37413 conn=wye bus1=p1ulv37413.1.2 kV=0.2080002494301389 Vminpu=0.8 Vmaxpu=1.2 model=1 kW=13.540000000000001 kvar=1.101385051554455 Phases=2 res_477656_pu

New Load.load_p1ulv37414 conn=wye bus1=p1ulv37414.1.2.3 kV=0.48 Vminpu=0.8 Vmaxpu=1.2 model=1 kW=76.78 kvar=6.235992385668461 Phases=3 res_477656_pu

New Load.load_p1ulv37415 conn=wye bus1=p1ulv37415.1.2 kV=0.2080002494301389 Vminpu=0.8 Vmaxpu=1.2 model=1 kW=14.52 kvar=1.1797830018032032 Phases=2 res_477656_pu

New Load.load_p1ulv37423 conn=wye bus1=p1ulv37423.1.2 kV=0.2080002494301389 Vminpu=0.8 Vmaxpu=1.2 model=1 kW=14.26 kvar=1.1604256664843182 Phases=2 res_477656_pu

New Load.load_p1ulv38037 conn=wye bus1=p1ulv38037.1.2.3 kV=0.48 Vminpu=0.8 Vmaxpu=1.2 model=1 kW=76.44 kvar=6.209594759786041 Phases=3 res_477656_pu

New Load.load_p1ulv38038 conn=wye bus1=p1ulv38038.1.2 kV=0.2080002494301389 Vminpu=0.8 Vmaxpu=1.2 model=1 kW=18.89 kvar=1.5311794862704282 Phases=2 res_477656_pu

New Load.load_p1ulv38039 conn=wye bus1=p1ulv38039.1.2 kV=0.2080002494301389 Vminpu=0.8 Vmaxpu=1.2 model=1 kW=16.07 kvar=1.2989350938342485 Phases=2 res_477656_pu

New Load.load_p1ulv38040 conn=wye bus1=p1ulv38040.1.2 kV=0.2080002494301389 Vminpu=0.8 Vmaxpu=1.2 model=1 kW=15.85 kvar=1.2907177031558559 Phases=2 res_477656_pu

New Load.load_p1ulv38041 conn=wye bus1=p1ulv38041.1.2 kV=0.2080002494301389 Vminpu=0.8 Vmaxpu=1.2 model=1 kW=15.16 kvar=1.2293985450459088 Phases=2 res_477656_pu

New Load.load_p1ulv38042 conn=wye bus1=p1ulv38042.1.2.3 kV=0.48 Vminpu=0.8 Vmaxpu=1.2 model=1 kW=64.15 kvar=5.21054614946674 Phases=3 res_477656_pu

New Load.load_p1ulv38043 conn=wye bus1=p1ulv38043.1.2 kV=0.2080002494301389 Vminpu=0.8 Vmaxpu=1.2 model=1 kW=14.66 kvar=1.1888915798743651 Phases=2 res_477656_pu

New Load.load_p1ulv38044 conn=wye bus1=p1ulv38044.1.2 kV=0.2080002494301389 Vminpu=0.8 Vmaxpu=1.2 model=1 kW=14.32 kvar=1.1605367042542845 Phases=2 res_477656_pu

New Load.load_p1ulv38050 conn=wye bus1=p1ulv38050.1.2 kV=0.2080002494301389 Vminpu=0.8 Vmaxpu=1.2 model=1 kW=15.71 kvar=1.280538637790892 Phases=2 res_477656_pu

New Load.load_p1ulv38676 conn=wye bus1=p1ulv38676.1.2 kV=0.2080002494301389 Vminpu=0.8 Vmaxpu=1.2 model=1 kW=17.73 kvar=1.4397001180013347 Phases=2 res_477656_pu

New Load.load_p1ulv38677 conn=wye bus1=p1ulv38677.1.2 kV=0.2080002494301389 Vminpu=0.8 Vmaxpu=1.2 model=1 kW=15.19 kvar=1.231423893304486 Phases=2 res_477656_pu

New Load.load_p1ulv38678 conn=wye bus1=p1ulv38678.1.2 kV=0.2080002494301389 Vminpu=0.8 Vmaxpu=1.2 model=1 kW=16.32 kvar=1.3294001873557917 Phases=2 res_477656_pu

New Load.load_p1ulv38679 conn=wye bus1=p1ulv38679.1.2 kV=0.2080002494301389 Vminpu=0.8 Vmaxpu=1.2 model=1 kW=13.73 kvar=1.1205344401401856 Phases=2 res_477656_pu

New Load.load_p1ulv38680 conn=wye bus1=p1ulv38680.1.2 kV=0.2080002494301389 Vminpu=0.8 Vmaxpu=1.2 model=1 kW=17.26 kvar=1.4011189724808741 Phases=2 res_477656_pu

New Load.load_p1ulv38681 conn=wye bus1=p1ulv38681.1.2 kV=0.2080002494301389 Vminpu=0.8 Vmaxpu=1.2 model=1 kW=13.59 kvar=1.0997742311487098 Phases=2 res_477656_pu

New Load.load_p1ulv38682 conn=wye bus1=p1ulv7668.1.2 kV=0.2080002494301389 Vminpu=0.8 Vmaxpu=1.2 model=1 kW=14.97 kvar=1.2194642456011087 Phases=2 res_477656_pu

New Load.load_p1ulv38683 conn=wye bus1=p1ulv38683.1.2 kV=0.2080002494301389 Vminpu=0.8 Vmaxpu=1.2 model=1 kW=17.14 kvar=1.3894030828217663 Phases=2 res_477656_pu

New Load.load_p1ulv38684 conn=wye bus1=p1ulv38684.1.2 kV=0.2080002494301389 Vminpu=0.8 Vmaxpu=1.2 model=1 kW=14.200000000000001 kvar=1.1504099629613984 Phases=2 res_477656_pu

New Load.load_p1ulv38689 conn=wye bus1=p1ulv38689.1.2 kV=0.2080002494301389 Vminpu=0.8 Vmaxpu=1.2 model=1 kW=14.88 kvar=1.2113209933091376 Phases=2 res_477656_pu

New Load.load_p1ulv39317 conn=wye bus1=p1ulv39317.1.2 kV=0.2080002494301389 Vminpu=0.8 Vmaxpu=1.2 model=1 kW=14.55 kvar=1.1787648385814788 Phases=2 res_477656_pu

New Load.load_p1ulv39318 conn=wye bus1=p1ulv39318.1.2 kV=0.2080002494301389 Vminpu=0.8 Vmaxpu=1.2 model=1 kW=15.3 kvar=1.239525286338795 Phases=2 res_477656_pu

New Load.load_p1ulv39319 conn=wye bus1=p1ulv39319.1.2.3 kV=0.48 Vminpu=0.8 Vmaxpu=1.2 model=1 kW=61.6 kvar=5.003406009753993 Phases=3 res_477656_pu

New Load.load_p1ulv39948 conn=wye bus1=p1ulv39948.1.2.3 kV=0.48 Vminpu=0.8 Vmaxpu=1.2 model=1 kW=91.56 kvar=7.43608937588149 Phases=3 res_477656_pu

New Load.load_p1ulv39950 conn=wye bus1=p1ulv39950.1.2 kV=0.2080002494301389 Vminpu=0.8 Vmaxpu=1.2 model=1 kW=14.370000000000001 kvar=1.1706047318492825 Phases=2 res_477656_pu

New Load.load_p1ulv39951 conn=wye bus1=p1ulv39951.1.2 kV=0.2080002494301389 Vminpu=0.8 Vmaxpu=1.2 model=1 kW=13.44 kvar=1.0904351605376348 Phases=2 res_477656_pu

New Load.load_p1ulv39952 conn=wye bus1=p1ulv39952.1.2 kV=0.2080002494301389 Vminpu=0.8 Vmaxpu=1.2 model=1 kW=14.07 kvar=1.1402832216685126 Phases=2 res_477656_pu

New Load.load_p1ulv39953 conn=wye bus1=p1ulv39953.1.2 kV=0.2080002494301389 Vminpu=0.8 Vmaxpu=1.2 model=1 kW=13.790000000000001 kvar=1.1208959902193418 Phases=2 res_477656_pu

...