tests/data/smart-ds/p1uhs10_1247/p1uhs10_1247--p1udt14394/Lines.dss
New Line.l(r:p1udt38lv-p1ulv39) Units=km Length=0.0174792 bus1=p1udt38lv.1.2 bus2=p1ulv39.1.2 switch=n enabled=y phases=2 Linecode=1P_UG_AL_1/0_Brenau_0_416_0_2_2_2_2_2

New Line.l(r:p1udt38lv-p1ulv43712) Units=km Length=0.0165909 bus1=p1udt38lv.1.2 bus2=p1ulv43712.1.2 switch=n enabled=y phases=2 Linecode=1P_UG_AL_1/0_Brenau_0_416_0_2_2_2_2_2

New Line.l(r:p1udm111-p1ulv1971) Units=km Length=0.018319300000000004 bus1=p1udm111.1.2 bus2=p1ulv1971.1.2 switch=n enabled=y phases=2 Linecode=1P_UG_AL_1/0_Brenau_0_416_0_2_2_2_2_2

New Line.l(r:p1udm111-p1ulv56802) Units=km Length=0.0158231 bus1=p1udm111.1.2 bus2=p1ulv56802.1.2 switch=n enabled=y phases=2 Linecode=1P_UG_AL_1/0_Brenau_0_416_0_2_2_2_2_2

New Line.l(r:p1udm111-p1udt38lv) Units=km Length=0.00969149 bus1=p1udt38lv.1.2 bus2=p1udm111.1.2 switch=n enabled=y phases=2 Linecode=1P_UG_AL_4/0_Sweetbriar_0_416_0_2_2_2_2_2

New Line.l(r:p1udm114-p1ulv62311) Units=km Length=0.0177069 bus1=p1udm114.1.2 bus2=p1ulv62311.1.2 switch=n enabled=y phases=2 Linecode=1P_UG_AL_1/0_Brenau_0_416_0_2_2_2_2_2

New Line.l(r:p1udm114-p1udt38lv) Units=km Length=0.019396 bus1=p1udt38lv.1.2 bus2=p1udm114.1.2 switch=n enabled=y phases=2 Linecode=1P_UG_AL_1/0_Brenau_0_416_0_2_2_2_2_2

New Line.l(r:p1udt39lv-p1ulv40) Units=km Length=0.0148296 bus1=p1udt39lv.1.2 bus2=p1ulv40.1.2 switch=n enabled=y phases=2 Linecode=1P_UG_AL_1/0_Brenau_0_416_0_2_2_2_2_2

New Line.l(r:p1udt39lv-p1ulv56199) Units=km Length=0.018653600000000003 bus1=p1udt39lv.1.2 bus2=p1ulv56199.1.2 switch=n enabled=y phases=2 Linecode=1P_UG_AL_2/0_Converse_0_416_0_2_2_2_2_2

New Line.l(r:p1udm116-p1ulv41793) Units=km Length=0.0158032 bus1=p1udm116.1.2 bus2=p1ulv41793.1.2 switch=n enabled=y phases=2 Linecode=1P_UG_AL_1/0_Brenau_0_416_0_2_2_2_2_2

New Line.l(r:p1udm116-p1udt39lv) Units=km Length=0.00967115 bus1=p1udt39lv.1.2 bus2=p1udm116.1.2 switch=n enabled=y phases=2 Linecode=1P_UG_AL_1/0_Brenau_0_416_0_2_2_2_2_2

New Line.l(r:p1udt40lv-p1ulv27914) Units=km Length=0.017728200000000003 bus1=p1udt40lv.1.2 bus2=p1ulv27914.1.2 switch=n enabled=y phases=2 Linecode=1P_UG_AL_1/0_Brenau_0_416_0_2_2_2_2_2

New Line.l(r:p1udt40lv-p1ulv38680) Units=km Length=0.012688 bus1=p1udt40lv.1.2 bus2=p1ulv38680.1.2 switch=n enabled=y phases=2 Linecode=1P_UG_AL_1/0_Brenau_0_416_0_2_2_2_2_2

New Line.l(r:p1udm119-p1ulv7665) Units=km Length=0.0172885 bus1=p1udm119.1.2 bus2=p1ulv7665.1.2 switch=n enabled=y phases=2 Linecode=1P_UG_AL_1/0_Brenau_0_416_0_2_2_2_2_2

New Line.l(r:p1udm118-p1ulv41) Units=km Length=0.0143596 bus1=p1udm118.1.2 bus2=p1ulv41.1.2 switch=n enabled=y phases=2 Linecode=1P_UG_AL_1/0_Brenau_0_416_0_2_2_2_2_2

New Line.l(r:p1udm118-p1udm119) Units=km Length=0.00974425 bus1=p1udm119.1.2 bus2=p1udm118.1.2 switch=n enabled=y phases=2 Linecode=1P_UG_AL_1/0_Brenau_0_416_0_2_2_2_2_2

New Line.l(r:p1udm119-p1udt40lv) Units=km Length=0.00973113 bus1=p1udt40lv.1.2 bus2=p1udm119.1.2 switch=n enabled=y phases=2 Linecode=1P_UG_AL_4/0_Sweetbriar_0_416_0_2_2_2_2_2

New Line.l(r:p1udm120-p1ulv18994) Units=km Length=0.0133897 bus1=p1udm120.1.2 bus2=p1ulv18994.1.2 switch=n enabled=y phases=2 Linecode=1P_UG_AL_1/0_Brenau_0_416_0_2_2_2_2_2

New Line.l(r:p1udm120-p1udt40lv) Units=km Length=0.00973506 bus1=p1udt40lv.1.2 bus2=p1udm120.1.2 switch=n enabled=y phases=2 Linecode=1P_UG_AL_1/0_Brenau_0_416_0_2_2_2_2_2

New Line.l(r:p1udm123-p1ulv42) Units=km Length=0.0166061 bus1=p1udm123.1.2 bus2=p1ulv42.1.2 switch=n enabled=y phases=2 Linecode=1P_UG_AL_1/0_Brenau_0_416_0_2_2_2_2_2

New Line.l(r:p1udm123-p1ulv29771) Units=km Length=0.0166118 bus1=p1udm123.1.2 bus2=p1ulv29771.1.2 switch=n enabled=y phases=2 Linecode=1P_UG_AL_1/0_Brenau_0_416_0_2_2_2_2_2

New Line.l(r:p1udm123-p1udt41lv) Units=km Length=0.00962967 bus1=p1udt41lv.1.2 bus2=p1udm123.1.2 switch=n enabled=y phases=2 Linecode=1P_UG_AL_4/0_Sweetbriar_0_416_0_2_2_2_2_2

New Line.l(r:p1udm124-p1ulv1976) Units=km Length=0.0170933 bus1=p1udm124.1.2 bus2=p1ulv1976.1.2 switch=n enabled=y phases=2 Linecode=1P_UG_AL_1/0_Brenau_0_416_0_2_2_2_2_2

New Line.l(r:p1udm124-p1ulv8907) Units=km Length=0.0153738 bus1=p1udm124.1.2 bus2=p1ulv8907.1.2 switch=n enabled=y phases=2 Linecode=1P_UG_AL_1/0_Brenau_0_416_0_2_2_2_2_2

New Line.l(r:p1udm124-p1udt41lv) Units=km Length=0.00963099 bus1=p1udt41lv.1.2 bus2=p1udm124.1.2 switch=n enabled=y phases=2 Linecode=1P_UG_AL_4/0_Sweetbriar_0_416_0_2_2_2_2_2

New Line.l(r:p1udt43lv-p1ulv44) Units=km Length=0.00479009 bus1=p1udt43lv.1.2 bus2=p1ulv44.1.2 switch=n enabled=y phases=2 Linecode=1P_OH_AL_2/0_Rucina_0_416_0_2_2_2_2_2

New Line.l(r:p1udm129-p1ulv45) Units=km Length=0.0183957 bus1=p1udm129.1.2 bus2=p1ulv45.1.2 switch=n enabled=y phases=2 Linecode=1P_UG_AL_1/0_Brenau_0_416_0_2_2_2_2_2

New Line.l(r:p1udm132-p1ulv38044) Units=km Length=0.0164229 bus1=p1udm132.1.2 bus2=p1ulv38044.1.2 switch=n enabled=y phases=2 Linecode=1P_UG_AL_1/0_Brenau_0_416_0_2_2_2_2_2

New Line.l(r:p1udm129-p1udm132) Units=km Length=0.00942124 bus1=p1udm129.1.2 bus2=p1udm132.1.2 switch=n enabled=y phases=2 Linecode=1P_UG_AL_1/0_Brenau_0_416_0_2_2_2_2_2

New Line.l(r:p1udm129-p1udt44lv) Units=km Length=0.00942518 bus1=p1udt44lv.1.2 bus2=p1udm129.1.2 switch=n enabled=y phases=2 Linecode=1P_UG_AL_4/0_Sweetbriar_0_416_0_2_2_2_2_2

New Line.l(r:p1udm130-p1ulv14491) Units=km Length=0.0166783 bus1=p1udm130.1.2 bus2=p1ulv14491.1.2 switch=n enabled=y phases=2 Linecode=1P_UG_AL_4/0_Sweetbriar_0_416_0_2_2_2_2_2

New Line.l(r:p1udm130-p1ulv31687) Units=km Length=0.017266000000000004 bus1=p1udm130.1.2 bus2=p1ulv31687.1.2 switch=n enabled=y phases=2 Linecode=1P_UG_AL_1/0_Brenau_0_416_0_2_2_2_2_2

New Line.l(r:p1udm130-p1udt44lv) Units=km Length=0.00942124 bus1=p1udt44lv.1.2 bus2=p1udm130.1.2 switch=n enabled=y phases=2 Linecode=1P_UG_AL_4/0_Sweetbriar_0_416_0_2_2_2_2_2

New Line.l(r:p1udt649lv-p1ulv42441) Units=km Length=0.0180458 bus1=p1udt649lv.1.2 bus2=p1ulv42441.1.2 switch=n enabled=y phases=2 Linecode=1P_UG_AL_1/0_Brenau_0_416_0_2_2_2_2_2

New Line.l(r:p1udm2395-p1ulv32963) Units=km Length=0.0159227 bus1=p1udm2395.1.2 bus2=p1ulv32963.1.2 switch=n enabled=y phases=2 Linecode=1P_UG_AL_1/0_Brenau_0_416_0_2_2_2_2_2

New Line.l(r:p1udm2395-p1udt649lv) Units=km Length=0.00943835 bus1=p1udt649lv.1.2 bus2=p1udm2395.1.2 switch=n enabled=y phases=2 Linecode=1P_UG_AL_1/0_Brenau_0_416_0_2_2_2_2_2

New Line.l(r:p1udm2397-p1ulv55006) Units=km Length=0.0131168 bus1=p1udm2397.1.2 bus2=p1ulv55006.1.2 switch=n enabled=y phases=2 Linecode=1P_UG_AL_1/0_Brenau_0_416_0_2_2_2_2_2

New Line.l(r:p1udm2394-p1ulv658) Units=km Length=0.0173215 bus1=p1udm2394.1.2 bus2=p1ulv658.1.2 switch=n enabled=y phases=2 Linecode=1P_UG_AL_1/0_Brenau_0_416_0_2_2_2_2_2

New Line.l(r:p1udm2394-p1udm2397) Units=km Length=0.00943763 bus1=p1udm2397.1.2 bus2=p1udm2394.1.2 switch=n enabled=y phases=2 Linecode=1P_UG_AL_1/0_Brenau_0_416_0_2_2_2_2_2

New Line.l(r:p1udm2397-p1udt649lv) Units=km Length=0.00944505 bus1=p1udt649lv.1.2 bus2=p1udm2397.1.2 switch=n enabled=y phases=2 Linecode=1P_UG_AL_4/0_Sweetbriar_0_416_0_2_2_2_2_2

New Line.l(r:p1udt690lv-p1ulv36191) Units=km Length=0.018767 bus1=p1udt690lv.1.2 bus2=p1ulv36191.1.2 switch=n enabled=y phases=2 Linecode=1P_UG_AL_1/0_Brenau_0_416_0_2_2_2_2_2

New Line.l(r:p1udm2534-p1ulv700) Units=km Length=0.0187632 bus1=p1udm2534.1.2 bus2=p1ulv700.1.2 switch=n enabled=y phases=2 Linecode=1P_UG_AL_1/0_Brenau_0_416_0_2_2_2_2_2

New Line.l(r:p1udm2534-p1ulv17664) Units=km Length=0.0173059 bus1=p1udm2534.1.2 bus2=p1ulv17664.1.2 switch=n enabled=y phases=2 Linecode=1P_UG_AL_1/0_Brenau_0_416_0_2_2_2_2_2

New Line.l(r:p1udm2534-p1udt690lv) Units=km Length=0.00893368 bus1=p1udt690lv.1.2 bus2=p1udm2534.1.2 switch=n enabled=y phases=2 Linecode=1P_UG_AL_4/0_Sweetbriar_0_416_0_2_2_2_2_2

New Line.l(r:p1udm2537-p1ulv54369) Units=km Length=0.0189841 bus1=p1udm2537.1.2 bus2=p1ulv54369.1.2 switch=n enabled=y phases=2 Linecode=1P_UG_AL_1/0_Brenau_0_416_0_2_2_2_2_2

New Line.l(r:p1udm2537-p1udt690lv) Units=km Length=0.00974353 bus1=p1udt690lv.1.2 bus2=p1udm2537.1.2 switch=n enabled=y phases=2 Linecode=1P_UG_AL_1/0_Brenau_0_416_0_2_2_2_2_2

New Line.l(r:p1udt691lv-p1ulv52477) Units=km Length=0.0159327 bus1=p1udt691lv.1.2 bus2=p1ulv52477.1.2 switch=n enabled=y phases=2 Linecode=1P_UG_AL_1/0_Brenau_0_416_0_2_2_2_2_2

New Line.l(r:p1udm2538-p1ulv701) Units=km Length=0.0146421 bus1=p1udm2538.1.2 bus2=p1ulv701.1.2 switch=n enabled=y phases=2 Linecode=1P_UG_AL_1/0_Brenau_0_416_0_2_2_2_2_2

New Line.l(r:p1udm2541-p1ulv36192) Units=km Length=0.016855 bus1=p1udm2541.1.2 bus2=p1ulv36192.1.2 switch=n enabled=y phases=2 Linecode=1P_UG_AL_1/0_Brenau_0_416_0_2_2_2_2_2

New Line.l(r:p1udm2541-p1ulv39951) Units=km Length=0.0155277 bus1=p1udm2541.1.2 bus2=p1ulv39951.1.2 switch=n enabled=y phases=2 Linecode=1P_UG_AL_1/0_Brenau_0_416_0_2_2_2_2_2

New Line.l(r:p1udm2538-p1udm2541) Units=km Length=0.0271118 bus1=p1udm2538.1.2 bus2=p1udm2541.1.2 switch=n enabled=y phases=2 Linecode=1P_UG_AL_4/0_Sweetbriar_0_416_0_2_2_2_2_2

New Line.l(r:p1udm2538-p1udt691lv) Units=km Length=0.00811372 bus1=p1udt691lv.1.2 bus2=p1udm2538.1.2 switch=n enabled=y phases=2 Linecode=1P_UG_AL_4/0_Sweetbriar_0_416_0_2_2_2_2_2

New Line.l(r:p1udm2539-p1ulv15735) Units=km Length=0.0130824 bus1=p1udm2539.1.2 bus2=p1ulv15735.1.2 switch=n enabled=y phases=2 Linecode=1P_UG_AL_1/0_Brenau_0_416_0_2_2_2_2_2

New Line.l(r:p1udm2540-p1ulv26619) Units=km Length=0.0163807 bus1=p1udm2540.1.2 bus2=p1ulv26619.1.2 switch=n enabled=y phases=2 Linecode=1P_UG_AL_1/0_Brenau_0_416_0_2_2_2_2_2

New Line.l(r:p1udm2539-p1udm2540) Units=km Length=0.0285749 bus1=p1udm2539.1.2 bus2=p1udm2540.1.2 switch=n enabled=y phases=2 Linecode=1P_UG_AL_1/0_Brenau_0_416_0_2_2_2_2_2

New Line.l(r:p1udm2539-p1udt691lv) Units=km Length=0.00810902 bus1=p1udt691lv.1.2 bus2=p1udm2539.1.2 switch=n enabled=y phases=2 Linecode=1P_UG_AL_4/0_Sweetbriar_0_416_0_2_2_2_2_2

New Line.l(r:p1udm2544-p1ulv702) Units=km Length=0.0139729 bus1=p1udm2544.1.2 bus2=p1ulv702.1.2 switch=n enabled=y phases=2 Linecode=1P_UG_AL_1/0_Brenau_0_416_0_2_2_2_2_2

New Line.l(r:p1udm2544-p1ulv6412) Units=km Length=0.0112 bus1=p1udm2544.1.2 bus2=p1ulv6412.1.2 switch=n enabled=y phases=2 Linecode=1P_UG_AL_1/0_Brenau_0_416_0_2_2_2_2_2

New Line.l(r:p1udm2545-p1ulv3274) Units=km Length=0.0114338 bus1=p1udm2545.1.2 bus2=p1ulv3274.1.2 switch=n enabled=y phases=2 Linecode=1P_UG_AL_1/0_Brenau_0_416_0_2_2_2_2_2

New Line.l(r:p1udm2544-p1udm2545) Units=km Length=0.0355653 bus1=p1udm2544.1.2 bus2=p1udm2545.1.2 switch=n enabled=y phases=2 Linecode=1P_UG_AL_1/0_Brenau_0_416_0_2_2_2_2_2

New Line.l(r:p1udm2544-p1udt692lv) Units=km Length=0.00928953 bus1=p1udt692lv.1.2 bus2=p1udm2544.1.2 switch=n enabled=y phases=2 Linecode=1P_UG_AL_4/0_Sweetbriar_0_416_0_2_2_2_2_2

New Line.l(r:p1udm2547-p1ulv5105) Units=km Length=0.0120259 bus1=p1udm2547.1.2 bus2=p1ulv5105.1.2 switch=n enabled=y phases=2 Linecode=1P_UG_AL_1/0_Brenau_0_416_0_2_2_2_2_2

...